16

C  1.5696201324 -0.5021500587 -1.0959801674
N  2.9166002274 -0.3220500350 -0.5652100444
N  3.2855002880 0.9624000788 -0.3548600078
C  4.5365900993 1.1625200510 -0.0604100041
C  5.5859704018 0.0802400038 0.0379700027
C  4.9855804443 2.5810003281 0.1894600093
H  1.3765600920 -1.5661801100 -1.2632501125
H  1.4581701756 0.0149400020 -2.0544500351
H  0.8183500767 -0.1203200072 -0.3976000249
H  2.9963202477 -0.8696001172 0.2947100103
H  5.3180904388 -0.6273500323 0.8277800679
H  6.5599904060 0.5160900354 0.2789500356
H  5.6675004959 -0.4454700351 -0.9177901149
H  4.1429805756 3.2736301422 0.1150000095
H  5.7411303520 2.8553900719 -0.5515200496
H  5.4194602966 2.6519203186 1.1904500723
