14

C  0.2597000301 -0.3850700557 0.3586400449
C  1.7229502201 -0.2130200267 -0.0045900005
O  1.8659901619 1.0271401405 -0.6979500055
C  3.1187500954 1.3784800768 -1.1196501255
C  4.2785005569 0.7229100466 -0.9692300558
C  5.4960403442 1.2469300032 -1.4816701412
N  6.4939103127 1.6664601564 -1.8969401121
H  0.0961700082 -1.3318601847 0.8809600472
H  -0.3662600219 -0.3635100424 -0.5396299958
H  -0.0765900090 0.4354500175 1.0011600256
H  2.0370101929 -1.0421600342 -0.6490401030
H  2.3257501125 -0.2052700073 0.9107600451
H  3.0530703068 2.3337302208 -1.6345101595
H  4.3424105644 -0.2266000062 -0.4554100335
