13

N  0.9673100710 0.3201800287 -0.9383300543
C  2.1029300690 0.1949000061 -0.7371100187
C  3.4902601242 0.0275800023 -0.4850500524
C  4.3261299133 1.0695800781 -0.3539100289
C  5.7615003586 0.9813000560 -0.0904200077
C  6.6981406212 0.5929000974 -1.2064100504
N  6.6008005142 1.9732401371 -0.7511700392
H  3.8573403358 -0.9890900850 -0.4031300247
H  3.9231703281 2.0792901516 -0.4421500266
H  6.0386104584 0.7265000939 0.9275400639
H  6.2966904640 0.3933900297 -2.1924901009
H  7.6086606979 0.0618000031 -0.9590801001
H  7.3986206055 2.2233402729 -0.1643700153
