18

C  0.9181800485 0.0639900044 -0.0238200016
C  2.4192702770 -0.1651100069 0.0642600060
C  3.1935203075 1.1445300579 -0.1006100103
C  4.6896204948 0.9522901177 0.0063900002
C  5.3731904030 0.2917500138 -1.1577001810
C  5.3801007271 1.3824601173 1.0753400326
H  0.3822400272 -0.8818600774 0.1056700051
H  0.6417200565 0.4797200561 -0.9987400770
H  0.5788800120 0.7555800676 0.7539200187
H  2.7113401890 -0.8827500939 -0.7102300525
H  2.6560301781 -0.6206000447 1.0326900482
H  2.8513801098 1.8606101274 0.6589600444
H  2.9605700970 1.6009600163 -1.0711901188
H  5.0164003372 -0.7344000340 -1.2852200270
H  6.4594702721 0.2492500097 -1.0246800184
H  5.1746301651 0.8477200866 -2.0795700550
H  4.8882002831 1.8706601858 1.9114201069
H  6.4562106133 1.2562301159 1.1456601620
