14

C  1.4120101929 0.1492500156 -1.4832100868
C  2.6044201851 0.2287200242 -0.8902400136
O  3.4311702251 1.3058800697 -1.0759199858
C  4.6586003304 1.1881901026 -0.3291500211
C  5.8050003052 0.5038200021 -1.0232400894
C  5.8076400757 1.9963800907 -0.8683201075
H  0.7694900632 -0.7104600668 -1.3318001032
H  1.0609201193 0.9445101023 -2.1322500706
H  2.9873502254 -0.5464300513 -0.2407500148
H  4.5925302505 1.1152100563 0.7529700994
H  5.6316204071 0.0972700045 -2.0127401352
H  6.4904804230 -0.0737200081 -0.4155900180
H  6.4958004951 2.4345700741 -0.1558600068
H  5.6328601837 2.6005401611 -1.7509901524
