17

C  0.9401201010 -0.0017400002 0.0575600043
C  2.4698703289 -0.0001200000 0.0967200026
C  2.9778602123 0.0030000003 1.5401301384
C  3.0351703167 1.1673400402 -0.6838100553
C  3.7806904316 0.7188100815 -1.7071502209
C  3.7810602188 -0.7219700217 -1.7031401396
C  3.0378201008 -1.1677801609 -0.6802300811
H  0.5576800108 -0.0018800001 -0.9706300497
H  0.5309400558 0.8831500411 0.5597400665
H  0.5331299901 -0.8876700401 0.5592700243
H  4.0739002228 0.0025800001 1.5876200199
H  2.6254303455 -0.8809700608 2.0848400593
H  2.6263601780 0.8898801208 2.0810101032
H  2.8606600761 2.2066702843 -0.4471200407
H  4.3050704002 1.3244301081 -2.4296901226
H  4.3073406219 -1.3301200867 -2.4244301319
H  2.8653001785 -2.2071902752 -0.4397100508
