19

C  4.1030502319 -1.3189101219 0.9247700572
C  3.2983202934 -0.6250700355 -0.1768700033
N  1.8687702417 -0.9318900704 0.0136900013
C  3.4867603779 0.9130401015 -0.1976000220
O  3.1037101746 1.4745100737 1.0716000795
C  4.9303603172 1.3529001474 -0.5101700425
N  5.0250205994 2.8211901188 -0.4700000286
H  5.1785707474 -1.1824800968 0.7751400471
H  3.9176201820 -2.3994703293 0.9216000438
H  3.8465502262 -0.9395601153 1.9200900793
H  3.6029403210 -1.0358201265 -1.1457500458
H  1.5392601490 -0.3473300338 0.7893200517
H  1.7546502352 -1.8950101137 0.3233900368
H  2.8143002987 1.3450901508 -0.9511001110
H  3.5201702118 2.3616702557 1.0737600327
H  5.2446703911 0.9828900695 -1.4908701181
H  5.6210603714 0.9689100981 0.2462100238
H  4.4618406296 3.2147002220 -1.2257200480
H  5.9872903824 3.0949201584 -0.6721500158
