13

O  0.8988701105 -0.1623300165 0.1281700134
C  2.1231503487 -0.0763000101 0.0626000017
C  2.8226802349 1.2386100292 -0.1110700071
C  4.3349204063 1.1921499968 0.0048300005
N  4.9578504562 -0.1223900095 -0.1136800051
C  4.2472205162 -1.1730000973 -0.0518000051
N  2.8947503567 -1.1921601295 0.0744400024
H  2.4258501530 1.9325801134 0.6349200606
H  2.5430200100 1.6290801764 -1.0968500376
H  4.6404805183 1.6332901716 0.9630400538
H  4.7605299950 1.8395601511 -0.7668700814
H  4.6983404160 -2.1780002117 -0.0921300128
H  2.3987801075 -2.0698902607 0.1313200146
