17

C  1.6997902393 -0.1196600124 0.0548300035
C  0.8052100539 -1.2709101439 0.5211500525
C  -0.4539500475 -1.4459801912 -0.3186600208
N  -1.5334100723 -0.5468400717 0.0835999995
C  -1.3094201088 0.6925300956 0.3043700159
N  -0.1759600192 1.4541701078 0.2229100168
C  0.9662000537 1.0610100031 -0.5687600374
H  2.4193701744 -0.4998300374 -0.6819800735
H  2.2954502106 0.2232000232 0.9105600715
H  1.3961101770 -2.1939001083 0.4897100329
H  0.5327000618 -1.1181401014 1.5732001066
H  -0.8218400478 -2.4666101933 -0.1601200104
H  -0.2530300319 -1.3588401079 -1.3922901154
H  -2.1670103073 1.3040500879 0.6356900334
H  -0.3300400376 2.4572103024 0.2609400153
H  1.6591401100 1.9070200920 -0.6435400844
H  0.6505900025 0.8317900896 -1.5931801796
