14

O  0.5101700425 -0.2848899961 -0.6311800480
N  1.5026201010 -0.3864400387 0.3793300390
C  2.5971801281 -1.2791501284 0.0237500034
C  2.0710902214 -2.6725301743 -0.1650500149
C  2.3809201717 -3.7154004574 0.6173200607
C  1.7851201296 0.8378300667 0.9552500844
O  2.8175702095 1.1396901608 1.5415900946
H  -0.2088700086 -0.8136000633 -0.2355700135
H  3.3590402603 -1.2437701225 0.8106400967
H  3.0564503670 -0.9157700539 -0.9023401141
H  1.4165002108 -2.8312802315 -1.0188801289
H  3.0418002605 -3.6114301682 1.4730901718
H  1.9766502380 -4.7027206421 0.4145400524
H  0.9324800372 1.5344902277 0.8858400583
