11

C  0.9663300514 -0.0313100033 -0.0061300006
C  2.4646902084 -0.1006700099 0.0013900001
O  3.0891201496 -1.1542100906 0.0057800007
C  3.1782903671 1.1536101103 0.0002000000
C  3.7709703445 2.1977803707 -0.0003400000
C  4.5257802010 3.5304503441 -0.0005900000
C  5.1170601845 4.5743303299 -0.0007500001
H  0.6162700653 1.0049101114 0.0090100002
H  0.5786400437 -0.5437700152 0.8784400821
H  0.5887500644 -0.5154200196 -0.9107400775
H  5.6451802254 5.4994401932 -0.0007100001
