17

C  1.0361100435 0.0406100042 0.0403500013
C  2.5524501801 -0.0311800018 0.0237800032
O  3.0981602669 1.0403500795 0.8050500751
C  4.4143104553 0.6269000173 1.1791801453
C  4.3484106064 -0.8726400733 1.3940701485
C  3.1064202785 -1.3147900105 0.6414099932
O  3.4166004658 -2.2933502197 -0.3428700268
H  0.5962800384 -0.7642000914 -0.5552899837
H  0.6967800260 1.0011600256 -0.3613200188
H  0.6500700116 -0.0250000004 1.0627300739
H  2.9021303654 0.0904700086 -1.0096300840
H  5.0978002548 0.8757901192 0.3590700328
H  4.7338805199 1.1680501699 2.0737700462
H  5.2703599930 -1.3719700575 1.0802000761
H  4.2150702477 -1.0747801065 2.4636299610
H  2.3938403130 -1.7684301138 1.3389000893
H  4.0711002350 -1.9151000977 -0.9552300572
