16

C  0.9466800690 0.4089700282 0.1426600069
N  2.3957302570 0.4676000476 0.1483300179
C  3.1434803009 -0.7707900405 0.0070900004
C  3.2476403713 -1.1126900911 -1.4486401081
C  2.7910201550 -2.2437503338 -2.0035400391
C  3.0636801720 1.6656001806 0.2881300449
O  4.2801403999 1.8134001493 0.3064600229
H  0.5130900741 1.4125800133 0.1642600149
H  0.6168800592 -0.1386700124 1.0299401283
H  0.6028300524 -0.1079600081 -0.7569200397
H  2.6385502815 -1.5532300472 0.5842100382
H  4.1518301964 -0.6516100764 0.4176600277
H  3.7549202442 -0.3829500079 -2.0768301487
H  2.2929701805 -3.0092802048 -1.4171000719
H  2.9169402122 -2.4276401997 -3.0665102005
H  2.3839302063 2.5274100304 0.3895300329
