16

C  0.8748800755 -0.1565500200 1.1584800482
C  1.6361300945 -0.0660500079 0.0607600026
C  2.6991600990 0.9792100787 -0.1542300135
C  4.0864005089 0.3678800166 -0.3462500274
O  4.1313104630 -0.3271800280 -1.5954501629
N  5.4119501114 -0.8785600662 -1.7526000738
C  5.4281802177 -1.5728400946 -2.8389301300
H  0.1234200075 -0.9349900484 1.2480000257
H  0.9807000756 0.5355400443 1.9879400730
H  1.4886502028 -0.7835100293 -0.7454200387
H  2.7285602093 1.6694701910 0.6968600154
H  2.4253001213 1.5607100725 -1.0424400568
H  4.3265004158 -0.3239000142 0.4699600339
H  4.8354005814 1.1681600809 -0.3636100292
H  6.3487305641 -2.0922501087 -3.1452701092
H  4.5484805107 -1.6813300848 -3.4957602024
