17

C  1.0422199965 0.1473200172 -0.5006300807
N  2.4889702797 0.2020400167 -0.6878300309
C  3.0199503899 1.4744100571 -0.1424700171
C  4.5431504250 1.5557801723 -0.3087800145
O  5.1699900627 2.5896902084 -0.0963600054
N  5.1372303963 0.3755600154 -0.6975700259
C  6.5646905899 0.2405300140 -0.7833200693
H  0.6576500535 -0.7939500809 -0.9065200686
H  0.5399800539 0.9690000415 -1.0229300261
H  0.7782000303 0.1820600182 0.5608800650
H  2.6842904091 0.1914200187 -1.6919500828
H  2.8023302555 1.5517300367 0.9276201129
H  2.5812203884 2.3258202076 -0.6745700836
H  4.5439000130 -0.4480100274 -0.6226400137
H  6.9793004990 1.0638099909 -1.3737400770
H  6.8001809120 -0.7148300409 -1.2582200766
H  6.9870805740 0.2713900208 0.2255000174
