14

C  1.0423901081 -0.2528400123 0.1686000228
C  2.5187702179 0.0038400004 -0.1027200073
C  2.8633501530 1.4733700752 -0.0644100010
C  3.1610603333 2.1599600315 -1.1786600351
C  2.9118602276 2.1488201618 1.1931201220
C  2.9515001774 2.7128102779 2.2513301373
H  0.8301800489 -1.3253000975 0.1102100089
H  0.4108600318 0.2571000159 -0.5666800737
H  0.7521200180 0.0920300111 1.1665400267
H  2.7758202553 -0.4251300395 -1.0793700218
H  3.1263802052 -0.5336500406 0.6358500123
H  3.1497302055 1.6875401735 -2.1554501057
H  3.4217002392 3.2139503956 -1.1446501017
H  2.9870500565 3.2146701813 3.1904103756
