17

C  2.3511600494 -0.6340600252 -1.4941701889
C  2.4092903137 0.1567600220 -0.2122100145
C  1.5807501078 -0.1397200078 0.8039400578
C  3.4546601772 1.1954100132 -0.1304000169
C  3.4826204777 2.3051800728 -1.1508600712
C  3.0755403042 2.6058499813 0.2589700222
O  4.0290904045 3.3429901600 1.0396900177
H  3.3399703503 -1.0374400616 -1.7366302013
H  2.0222301483 0.0010400000 -2.3226900101
H  1.6574401855 -1.4790000916 -1.4271500111
H  0.8354700804 -0.9249900579 0.7264400721
H  1.6314002275 0.4014600515 1.7443801165
H  4.4129400253 0.8181000948 0.2128800154
H  2.7082602978 2.3553202152 -1.9076901674
H  4.4478402138 2.6583700180 -1.4935201406
H  2.0271201134 2.8349401951 0.4256200492
H  4.9134302139 2.9404001236 1.0215300322
