15

C  2.6196901798 -1.1032800674 -0.2374500185
C  3.8151502609 -0.2935000360 0.2343700230
N  3.6529703140 1.0792599916 -0.2332100123
C  4.5433406830 1.9401401281 0.1135700047
N  5.6814503670 1.7318001986 0.8562500477
C  4.2992105484 3.3623602390 -0.3881200254
O  5.1999802589 4.1875205040 -0.3291200399
H  2.7044301033 -2.1422600746 0.0962400064
H  2.5509002209 -1.0978800058 -1.3309201002
H  1.6852701902 -0.6897400618 0.1574800164
H  4.7280702591 -0.7377300858 -0.1764500141
H  3.8623304367 -0.3305600286 1.3284101486
H  6.0897803307 0.8092800975 0.7948000431
H  6.3664307594 2.4820902348 0.7626200318
H  3.2920503616 3.5498702526 -0.7911000252
