16

C  0.9187901020 -0.2085000128 -0.1581000090
C  2.4440500736 -0.1120600104 -0.1962800175
C  2.9967701435 -0.9539400935 -1.3462500572
N  2.8328001499 1.2994601727 -0.3465900123
N  4.1586103439 1.5655201674 -0.2496500164
C  4.4505000114 2.7998201847 -0.4967300594
H  0.5088900328 0.3630700409 0.6820500493
H  0.6003500223 -1.2494001389 -0.0358700007
H  0.4682300389 0.1750900149 -1.0805400610
H  2.8374803066 -0.4955100417 0.7530700564
H  2.6404101849 -0.5908500552 -2.3168201447
H  2.6838700771 -1.9987801313 -1.2436701059
H  4.0918903351 -0.9396001101 -1.3603801727
H  2.2979300022 1.8587901592 0.3228400052
H  5.5003504753 3.1289200783 -0.4480200410
H  3.7011802197 3.5639402866 -0.7662800550
