20

C  0.9401900768 0.8433900476 -0.4178800285
C  2.2741601467 0.1413600147 -0.4355700314
C  2.9414401054 -0.0085800011 0.9224900603
C  3.5840501785 1.2961301804 1.4061901569
N  4.1985902786 1.1209801435 2.7198603153
C  2.4413402081 -0.9915900826 -1.4278801680
C  3.1556704044 0.3091500401 -1.6557201147
H  0.5027300715 0.9132600427 -1.4202201366
H  1.0388301611 1.8615101576 -0.0294600017
H  0.2328200191 0.2986200154 0.2165500075
H  3.7103402615 -0.7915200591 0.8799901009
H  2.1932601929 -0.3513500094 1.6491000652
H  2.8387603760 2.0957901478 1.4638900757
H  4.3528304100 1.6202101707 0.6967200637
H  3.4810202122 0.8800900578 3.4023902416
H  4.5961403847 2.0083801746 3.0249600410
H  1.6152200699 -1.2371901274 -2.0862400532
H  3.0377402306 -1.8528401852 -1.1463800669
H  4.2327404022 0.3194500506 -1.5266401768
H  2.8101103306 0.9435501099 -2.4647202492
