17

C  1.7278500795 -0.0423900038 0.4462600350
C  2.5918803215 0.1049800068 -0.8098200560
C  1.7693901062 -0.2312200218 -2.0320501328
C  2.0545802116 -1.2311501503 -2.8762602806
C  3.1830003262 1.4945000410 -0.8627500534
C  4.6401004791 1.7323402166 -0.5578800440
O  4.1495804787 1.6976001263 -1.9042201042
H  2.3110802174 0.1793500185 1.3470801115
H  1.3359000683 -1.0612300634 0.5402500629
H  0.8746900558 0.6473900080 0.4311500490
H  3.4119703770 -0.6200900078 -0.7228200436
H  0.9071800709 0.3999300301 -2.2398102283
H  2.9163501263 -1.8775800467 -2.7249600887
H  1.4402600527 -1.4150301218 -3.7511801720
H  2.4667601585 2.2876300812 -0.6903200150
H  5.2598404884 0.9033600688 -0.2379500121
H  4.9324603081 2.6951801777 -0.1600900143
