13

C  0.9549100399 0.0845600069 -0.0052200002
C  2.4302802086 -0.0138800004 -0.0017000001
N  3.1830003262 1.0960201025 -0.0005200000
O  4.4977602959 0.6567800045 0.0024200000
C  4.5216403008 -0.6995800138 0.0029100003
C  3.2387001514 -1.1746200323 0.0004300000
N  2.8599102497 -2.4641401768 0.0000300000
H  0.6176800132 1.1269201040 0.0035700004
H  0.5362900496 -0.4117400050 0.8765400648
H  0.5419499874 -0.3952200413 -0.8987400532
H  5.5024404526 -1.1492500305 0.0050200000
H  3.5237603188 -3.2329204082 0.0052400008
H  1.8866901398 -2.7535002232 0.0017300001
