13

C  0.9892000556 -0.0399100035 0.0059600007
C  2.4525201321 0.1208700091 -0.0004200000
C  3.3021302223 1.1988000870 -0.0298500005
C  4.5896105766 0.6280100346 -0.0385500044
N  5.7195501328 1.3504900932 -0.0779100060
N  4.5342202187 -0.7032200098 -0.0026300002
O  3.1871902943 -1.0234301090 0.0194000006
H  0.4877300262 0.9324000478 0.0167500004
H  0.6670600772 -0.5990600586 0.8892900944
H  0.6601800919 -0.5822100639 -0.8855301142
H  3.0293903351 2.2419700623 -0.0535600036
H  5.7330703735 2.3398602009 0.1302600056
H  6.5964703560 0.8686200380 0.0878500044
