18

N  2.1591000557 -0.4255900383 -1.3811200857
C  2.3688702583 0.0376700014 -0.0144800013
C  3.2024703026 1.3099200726 -0.0156700015
C  2.5245103836 2.6023402214 -0.5390800834
C  3.2078301907 3.3691904545 0.6142600179
O  4.4370002747 4.0513401031 0.2962000370
C  3.3431401253 2.0211501122 1.3538100719
H  1.5832101107 -1.2668200731 -1.3666100502
H  3.0499401093 -0.7047900558 -1.7901700735
H  2.8767101765 -0.7451900840 0.5594200492
H  1.3954401016 0.2120400220 0.4562000632
H  4.1865701675 1.1443800926 -0.4794700444
H  1.4302800894 2.6082503796 -0.4747100472
H  2.8185100555 2.9023101330 -1.5489600897
H  2.5348403454 4.0689506531 1.1218301058
H  4.9633402824 3.4180803299 -0.2214300185
H  4.2949905396 1.8529001474 1.8657301664
H  2.5265002251 1.8295000792 2.0594501495
