15

N  0.9919600487 0.0449900031 0.0733200088
C  2.4533500671 0.0623200051 0.0033900004
C  3.0576002598 1.1840300560 0.8491000533
C  4.4103899002 0.6255600452 1.2541301250
N  4.1727499962 -0.7812500596 1.3710501194
C  3.0754001141 -1.1859501600 0.6333500743
O  2.7181403637 -2.3422000408 0.4771100283
H  0.6700900793 -0.8670501113 -0.2598500252
H  0.6096800566 0.7386300564 -0.5658699870
H  2.7953202724 0.1170000136 -1.0364401340
H  2.4546802044 1.3598901033 1.7503201962
H  3.1339204311 2.1326799393 0.3091100454
H  5.1653103828 0.7821601033 0.4773100317
H  4.7691206932 1.0264500380 2.2050402164
H  4.7829899788 -1.4610201120 1.8081901073
