14

O  1.8347401619 0.4577100277 1.0688500404
C  2.7037801743 0.0864600018 0.2927900255
C  2.8519601822 -1.3303101063 -0.2150000185
C  4.1278004646 -1.3275201321 -1.0571300983
C  4.6426801682 0.0741600022 -0.9928600788
C  3.8631801605 1.2053101063 -1.5855301619
N  3.7469003201 0.8669900298 -0.2058400065
H  1.9768301249 -1.6099001169 -0.8078100681
H  2.9518601894 -2.0092401505 0.6375300288
H  4.8602304459 -2.0356001854 -0.6557300687
H  3.9139304161 -1.6190601587 -2.0910801888
H  5.6838703156 0.1851600111 -0.7288800478
H  4.3582005501 2.1529402733 -1.7534101009
H  2.9864602089 1.0112900734 -2.1882901192
