15

C  0.9434900880 -0.0374400020 0.0072600003
C  2.4361200333 -0.0027700001 0.0090100002
C  3.1390202045 1.1379899979 0.0000000000
C  4.5450205803 1.1379899979 0.0000000000
C  5.7351803780 1.1379899979 0.0000000000
C  7.1791806221 1.1379899979 0.0000000000
O  7.6701903343 2.4714403152 -0.0414500013
H  0.5945100784 -1.0744600296 -0.0380600058
H  0.5393700600 0.4883100390 -0.8637700677
H  0.5418000817 0.4111800194 0.9213800430
H  2.9503502846 -0.9610900879 0.0184000023
H  2.6302301884 2.0978100300 -0.0059700008
H  7.5782904625 0.6014700532 -0.8661000729
H  7.5764107704 0.6617200375 0.9010100365
H  7.2032508850 2.9167802334 -0.7687700391
