10

N  0.9747700691 0.1743300110 -0.0009300000
C  2.1359000206 0.1272600144 -0.0004600000
C  3.5573804379 -0.0050200000 0.0006600001
N  4.2863702774 1.0640101433 -0.0071100001
N  5.6535305977 0.6310900450 -0.0038200004
C  5.6649603844 -0.6635800600 0.0056700003
C  4.3073201180 -1.2727600336 0.0100300005
H  6.5748405457 -1.2783100605 0.0102500012
H  4.1366405487 -1.8650400639 -0.8893300891
H  4.1365203857 -1.8518002033 0.9179500937
