17

C  0.8999800682 0.0873700082 0.0364500061
C  2.4092302322 -0.0260100029 0.0163000021
C  3.1840102673 0.9098700881 0.9524101019
O  3.9698603153 -0.1980000138 1.4661201239
C  3.0303902626 -1.1459900141 0.8738100529
C  3.7731902599 -2.2529799938 0.1410500109
O  4.5969805717 -2.9588100910 1.0663501024
H  0.4442300498 -0.7430800796 -0.5131400228
H  0.5777000785 1.0204501152 -0.4372900128
H  0.5040700436 0.0735000074 1.0579401255
H  2.7960500717 0.0012100000 -1.0098201036
H  2.6094102859 1.3860801458 1.7532401085
H  3.8103301525 1.6540701389 0.4526700377
H  2.3666701317 -1.5439701080 1.6529700756
H  4.4183001518 -1.8541501760 -0.6483600736
H  3.0729804039 -2.9621300697 -0.3095500469
H  5.0723104477 -2.2707102299 1.5722901821
