17

C  0.9892600179 0.0648600087 -0.0370800011
C  2.5180201530 -0.0314900018 0.0147700012
C  3.0120103359 -0.0156100010 1.4586900473
C  3.0350403786 -1.2428101301 -0.7597700953
C  3.4340002537 -0.5753800869 -2.0345301628
N  3.4511401653 0.7161800265 -2.0093202591
N  3.1272902489 1.0688500404 -0.7416400909
H  0.6168700457 0.0666500032 -1.0682899952
H  0.6322600245 0.9815400839 0.4461400509
H  0.5285900235 -0.7855700850 0.4780200124
H  4.1061902046 -0.0568600036 1.5109701157
H  2.6227102280 -0.8767700791 2.0129601955
H  2.6900901794 0.8932000995 1.9798301458
H  2.2754700184 -2.0032300949 -0.9591701031
H  3.9243702888 -1.7092301846 -0.3246000409
H  3.7043402195 -1.1691300869 -2.9181902409
H  2.5984401703 1.9415901899 -0.7013600469
