15

C  -1.0182200670 0.0404300019 -1.0158500671
C  -0.5799100399 1.0441100597 0.0929100066
C  -1.0162701607 -0.0621200055 1.1038001776
C  -0.5447900891 -1.0512100458 -0.0040600002
N  0.9275900722 -1.1631101370 -0.0308700018
C  1.5065001249 -0.0065800003 0.0124900006
N  0.8509300947 1.1909900904 0.1290699989
H  -2.0965301991 0.0322300009 -1.2159200907
H  -0.4908200502 0.0935500041 -1.9730701447
H  -1.1069800854 1.9982101917 0.1471900195
H  -0.4867200255 -0.1014700085 2.0604901314
H  -2.0940001011 -0.0897700116 1.3044101000
H  -1.0524500608 -2.0166602135 -0.0500600003
H  2.6024303436 0.0911700055 -0.0537400022
H  1.2504900694 1.9788601398 -0.3676200211
