18

C  1.9369401932 -0.7669600844 -0.2204000205
N  1.8319501877 0.6851800680 -0.1576200128
C  3.1308503151 1.3237701654 0.0949700102
C  3.8496403694 1.9848001003 -1.0443401337
C  3.2297101021 2.8316302299 0.0340100043
C  4.0802702904 3.5049002171 1.0219399929
C  5.1278104782 4.2965807915 0.7591800690
H  0.9601800442 -1.1962801218 -0.4611200392
H  2.2618401051 -1.1809200048 0.7399700880
H  2.6412701607 -1.0806901455 -0.9979500771
H  1.1668400764 0.9379500747 0.5729700327
H  3.7517404556 0.8283000588 0.8408400416
H  3.3742301464 1.9919102192 -2.0183701515
H  4.9276003838 1.8846000433 -1.0851300955
H  2.3327801228 3.3826904297 -0.2293000221
H  3.8093302250 3.3501904011 2.0661001205
H  5.4405508041 4.4941101074 -0.2615100145
H  5.6936702728 4.7575201988 1.5601301193
