14

C  1.0000001192 0.0000000000 0.0000000000
C  2.4440002441 0.0000000000 0.0000000000
C  3.6341602802 0.0000000000 0.0000000000
C  5.0021600723 0.0000000000 0.0000000000
C  6.1923203468 0.0000000000 0.0000000000
C  7.6363205910 0.0000000000 0.0000000000
N  8.1415109634 1.3648500443 0.0178200006
H  0.6059300303 1.0208500624 0.0116800005
H  0.6059200764 -0.5205400586 0.8782400489
H  0.6059200764 -0.5003100634 -0.8899300694
H  8.0187702179 -0.5161000490 -0.8869800568
H  8.0184612274 -0.5330800414 0.8765500784
H  7.7982106209 1.8553000689 -0.8064400554
H  9.1557207108 1.3456201553 -0.0606200024
