17

C  1.0345001221 -0.3379400373 0.1425100118
C  2.5511302948 -0.3210500181 0.0373400003
C  3.1015901566 1.1022200584 0.1116800085
C  4.6259803772 1.1146901846 0.0119100008
C  5.1849303246 2.5178802013 0.0719800070
O  6.5325207710 2.5378401279 -0.0594600029
O  4.5306501389 3.5361502171 0.2242000252
H  0.6616900563 -1.3652700186 0.0825500041
H  0.5782800317 0.2370000184 -0.6696900725
H  0.7026700974 0.0887500048 1.0944501162
H  2.8510401249 -0.7873901129 -0.9084500670
H  2.9743802547 -0.9273700714 0.8467200994
H  2.7895703316 1.5711101294 1.0531600714
H  2.6739101410 1.7067701817 -0.6978300810
H  4.9364304543 0.6634600759 -0.9371400476
H  5.0566506386 0.5406900644 0.8399500847
H  6.9286103249 1.6534301043 -0.1723100096
