9

C  0.9657101035 -0.0402300023 -0.0012000001
C  2.1662702560 -0.0025600002 0.0004600000
C  3.5830602646 0.0391000025 0.0024400002
C  4.4034905434 1.1251000166 0.0006300000
O  5.6775102615 0.6560300589 0.0038200004
N  5.6220803261 -0.7425200939 0.0076200003
N  4.3374905586 -1.0929200649 0.0067000007
H  -0.0984600112 -0.0828800052 -0.0026600002
H  4.2789502144 2.1956000328 -0.0025200001
