13

C  1.1595200300 -0.3433200121 -0.0876700059
C  2.4687902927 -0.4727000296 -0.3320500255
C  3.3770501614 0.6908400059 -0.2208500206
N  3.1053402424 1.8891900778 -0.5956900120
N  4.5962705612 0.3812800348 0.3161100149
C  5.6247301102 1.2663900852 0.5096900463
O  6.6982107162 0.9272500277 0.9960000515
H  0.4965700507 -1.1979501247 -0.1749200225
H  0.7162401080 0.5988200307 0.2201200128
H  2.8964402676 -1.4252001047 -0.6238900423
H  2.1632702351 1.9335501194 -0.9983500838
H  4.8008203506 -0.5590700507 0.6183000803
H  5.4104905128 2.2993102074 0.1929600090
