16

N  0.9634500742 0.0872400105 -0.2256700099
C  2.3723001480 -0.0130000012 0.1469600201
C  3.1415703297 1.2504900694 -0.2506700158
C  3.5399804115 1.1883001328 -1.7193701267
O  4.3617501259 0.0477100052 -2.0099902153
C  3.8998003006 -1.1211199760 -1.4661101103
C  2.9694702625 -1.2162401676 -0.5085500479
H  0.5444599986 0.8855400681 0.2482500225
H  0.4662800133 -0.7334600687 0.1166900024
H  2.4326000214 -0.1292500198 1.2355301380
H  2.5600903034 2.1566700935 -0.0453800038
H  4.0524501801 1.3103400469 0.3596900105
H  4.1200003624 2.0793902874 -1.9822201729
H  2.6616702080 1.1679401398 -2.3765003681
H  4.3985905647 -1.9748700857 -1.9064401388
H  2.6646802425 -2.1972002983 -0.1585400105
