17

C  0.8913601041 -0.0253000017 0.0890000015
C  2.3991401196 0.0017200002 0.0156100010
N  2.8897800446 0.0380400047 -1.3677901030
C  3.1564602852 1.0696300268 0.8447200656
C  4.2086205482 -0.0007300000 1.2015401125
C  3.1855602264 -1.0817400217 0.7933100462
H  0.5453000069 -0.0568000041 1.1283401251
H  0.4840500355 -0.9061800838 -0.4196000397
H  0.4537700415 0.8661100268 -0.3751800358
H  3.9033703804 0.0402900018 -1.4700800180
H  2.5540101528 0.8399300575 -1.9019801617
H  2.5990502834 1.4226001501 1.7214601040
H  3.5353503227 1.9457502365 0.3096900284
H  5.1018004417 0.0263500009 0.5669300556
H  4.5230503082 -0.0215800013 2.2489202023
H  3.5885300636 -1.9214901924 0.2179900259
H  2.6395602226 -1.4914101362 1.6526200771
