10

N  1.0265200138 -0.0123800011 0.2451300174
C  2.2795202732 -0.0073200008 -0.2803700268
O  2.8087303638 -1.0232800245 -0.7061800957
C  2.9209103584 1.3266401291 -0.2827700078
C  4.1577601433 1.4816600084 -0.7715300322
H  0.5601400137 0.8064300418 0.6050400734
H  0.5406900644 -0.8990700841 0.2717100084
H  2.3717303276 2.1689701080 0.1167300045
H  4.7168202400 0.6409200430 -1.1748600006
H  4.6376004219 2.4539103508 -0.7784800529
