14

C  -0.1371300071 -0.2072800249 0.7180200219
C  0.8489300609 0.2479300201 -0.3106700182
C  1.8966001272 1.0326501131 -0.0196400024
O  2.8669803143 1.5219100714 -0.8480600715
C  2.7909002304 1.1771701574 -2.2351102829
C  3.9107201099 1.7876400948 -2.9694702625
N  4.7843003273 2.2568101883 -3.5752103329
H  -0.1401600242 -1.3002001047 0.7727000713
H  -1.1422901154 0.1266000122 0.4428700507
H  0.0913800076 0.1842400283 1.7143701315
H  0.6597200632 -0.1017800048 -1.3199200630
H  2.0926501751 1.3853400946 0.9893200994
H  1.8459600210 1.5423601866 -2.6544802189
H  2.8403201103 0.0877300054 -2.3479502201
