17

C  0.7659700513 0.0190000013 0.0973900035
C  2.2562000751 0.0206700005 0.1616300046
C  3.1062202454 -0.8425000906 -0.7414600253
C  2.6368601322 -1.4236600399 -2.0296599865
O  2.6579902172 -0.3628400266 -2.9988703728
C  2.6506600380 0.8984000683 -2.3102002144
C  3.1144702435 0.6356400251 -0.9196600318
H  0.3768500388 0.9574400783 0.5061500072
H  0.3693000376 -0.8018700480 0.7014300823
H  0.3749200106 -0.0911300033 -0.9171500206
H  2.5942001343 0.1417400092 1.1861600876
H  3.9885203838 -1.3229500055 -0.3425300419
H  3.2997701168 -2.2199101448 -2.3808202744
H  1.6209801435 -1.8238301277 -1.9613400698
H  3.3231604099 1.5797901154 -2.8398501873
H  1.6399800777 1.3159600496 -2.3414201736
H  4.0019702911 1.1875100136 -0.6448900700
