11

C  0.8812900186 0.0800300017 -0.0079000005
C  2.3655700684 0.0363400020 -0.0003500000
C  3.2755901814 1.0742700100 0.0036700002
N  4.6069803238 0.7064300776 0.0104300007
C  4.6916203499 -0.6055800319 0.0113200005
S  3.2047302723 -1.4599500895 0.0041200006
H  0.5205500126 1.1141000986 0.0000500000
H  0.4724100530 -0.4236000478 0.8741300702
H  0.4823800325 -0.4066700041 -0.9039600492
H  3.0221903324 2.1278302670 0.0019500001
H  5.6418104172 -1.1233100891 0.0162700005
