11

C  1.1500500441 -0.1575300097 0.0077900006
O  2.5174703598 0.1967700124 0.0142800016
S  2.8582000732 1.7814201117 -0.0237400029
O  2.6726400852 2.3557102680 -1.3319301605
O  2.6474602222 2.4230201244 1.2488701344
C  4.6391806602 1.6721601486 -0.0035300003
C  5.8394002914 1.5977101326 0.0100800004
H  1.0711101294 -1.2474200726 0.0367200039
H  0.6661400795 0.2047600150 -0.9040800333
H  0.6448500752 0.2538400292 0.8867000937
H  6.9023103714 1.5371801853 0.0219800025
