17

C  3.0706100464 -0.9345900416 1.3708801270
C  3.5353102684 -0.4237500429 0.0167000014
C  3.5470702648 1.0789700747 -0.0295300018
C  4.6283302307 1.8755601645 0.0592100024
C  6.0488305092 1.4550100565 0.2720800340
C  4.3992304802 3.3457901478 -0.0446500070
O  5.3100004196 4.1623802185 0.0123600010
H  3.0369303226 -2.0287301540 1.3705600500
H  2.0683102608 -0.5655700564 1.6128600836
H  3.7527303696 -0.6177600622 2.1670601368
H  2.8541302681 -0.7874200344 -0.7620400786
H  4.5158801079 -0.8470700383 -0.2210100144
H  2.5605602264 1.5227000713 -0.1651800126
H  6.1517505646 0.3847100437 0.4678000510
H  6.4757204056 1.9757500887 1.1362401247
H  6.6527404785 1.6942300797 -0.6090300083
H  3.3518702984 3.6641802788 -0.1812000126
