17

O  2.3098003864 -0.9479700327 -0.3796000481
C  1.9201700687 0.3551600277 0.0259800032
C  3.1381201744 1.2080401182 0.1102900058
C  3.6186201572 1.9899102449 -1.0836900473
C  3.0111300945 2.7132501602 0.0921300128
C  3.8815603256 3.4929602146 0.9752501249
C  3.6508903503 3.7371203899 2.2721903324
H  1.5062001944 -1.4938701391 -0.3786600232
H  1.4400700331 0.2881900370 1.0072400570
H  1.1946400404 0.7433000207 -0.6964700222
H  3.8902304173 0.7602800727 0.7511000633
H  3.0421400070 1.9380102158 -2.0006601810
H  4.6891407967 2.0432300568 -1.2468900681
H  2.0255300999 3.1432702541 -0.0604100041
H  4.7848706245 3.9097003937 0.5327700973
H  2.7672202587 3.3517501354 2.7696301937
H  4.3469004631 4.3266401291 2.8594903946
