15

N  2.8079402447 -0.7250201106 0.9743701220
C  2.3147602081 0.2021100223 -0.0326400027
C  2.8434600830 1.5920801163 0.2099400163
C  2.0073702335 2.6107802391 0.4858800173
C  4.3442702293 1.7350101471 0.1046700105
O  4.7473502159 3.1002101898 0.0975000039
H  2.3836801052 -1.6385201216 0.8224101067
H  2.4816000462 -0.4153300226 1.8899101019
H  1.2186200619 0.1870200187 -0.0232500024
H  2.6266901493 -0.1387100071 -1.0262401104
H  0.9334501028 2.4657502174 0.5520900488
H  2.3744201660 3.6138203144 0.6832300425
H  4.7091302872 1.2785201073 -0.8217500448
H  4.8372101784 1.2442301512 0.9493300319
H  4.3309998512 3.5016603470 -0.6829800606
