16

C  2.8367302418 -0.8851301074 -0.3731700182
O  2.7609801292 0.0384400040 0.7076100111
C  3.0128502846 1.3849301338 0.2871000171
C  2.4660003185 2.3095202446 1.3665201664
C  4.5137801170 1.6577501297 0.1038100123
N  5.3238401413 1.0744800568 1.0377000570
O  4.9717907906 2.3762900829 -0.7789400816
H  2.6414401531 -1.8861901760 0.0202600025
H  3.8328802586 -0.8778900504 -0.8245100379
H  2.0781800747 -0.6544700861 -1.1269800663
H  2.4983201027 1.5843001604 -0.6607900858
H  2.9212801456 2.0972301960 2.3402903080
H  1.3871101141 2.1621201038 1.4835700989
H  2.6525402069 3.3600802422 1.1228901148
H  4.9519305229 0.3413100243 1.6301500797
H  6.3239607811 1.1652400494 0.9270900488
