12

O  1.1847301722 0.1249400154 0.3121500313
C  2.3752002716 -0.0146500012 0.1677900255
N  3.3449401855 0.9323600531 0.0086200004
C  4.3094100952 -0.0259000026 -0.5468600392
C  3.4124202728 -1.1571000814 0.0168400016
C  3.0475401878 -2.2005801201 -0.9171300530
C  2.7480404377 -3.0777602196 -1.6813701391
H  3.0524702072 1.8270200491 -0.3623800278
H  4.3882603645 0.0518600047 -1.6361701488
H  5.2993903160 0.0558900051 -0.0907200053
H  3.7424602509 -1.5397300720 0.9907801151
H  2.4735002518 -3.8591003418 -2.3523502350
