11

O  0.9981700778 0.0982800126 -0.0000000000
C  2.3423702717 -0.0359700024 -0.0000000000
O  2.9278602600 -1.1046299934 0.0000000000
C  3.0520002842 1.2176301479 0.0000000000
C  3.6470804214 2.2483401299 0.0000000000
C  4.3500804901 3.4659702778 0.0000000000
C  3.7190003395 4.6446805000 0.0000000000
H  0.7342200875 1.0373201370 -0.0000000000
H  5.4363908768 3.4326500893 -0.0000000000
H  2.6363601685 4.7208805084 0.0000000000
H  4.2845005989 5.5714702606 0.0000000000
