13

N  2.1732802391 -0.2691999972 1.2133100033
C  2.0979602337 0.9842401147 0.9315800667
N  3.1133301258 1.7945401669 0.5112000108
C  4.4245700836 1.4364701509 0.3017100096
C  5.4204206467 2.2301201820 -0.1023200080
C  6.7762804031 1.6770801544 -0.2765000165
O  7.7046909332 2.3859601021 -0.6428700686
H  1.2518000603 -0.6145300269 1.5028001070
H  1.1382900476 1.5234200954 1.0186600685
H  2.8918302059 2.7681703568 0.3337300420
H  4.5951905251 0.3789200187 0.5073300600
H  5.2973203659 3.2833802700 -0.3163100183
H  6.9037108421 0.6032500863 -0.0610000044
