17

C  5.2239904404 4.0553803444 2.3061800003
C  4.9858803749 3.3351602554 0.9933400750
O  6.2327604294 3.2067101002 0.3133600354
C  6.0732908249 2.5709903240 -0.9544800520
C  7.3925304413 2.5668501854 -1.6483800411
C  8.2799606323 1.3526800871 -1.6556501389
O  7.4637203217 1.6953700781 -2.7849903107
H  4.2878303528 4.1818904877 2.8564400673
H  5.6659903526 5.0412807465 2.1295101643
H  5.9288206100 3.4968802929 2.9302902222
H  4.2850503922 3.9110903740 0.3786700368
H  4.5647602081 2.3414602280 1.1829900742
H  5.3517203331 3.1319601536 -1.5589600801
H  5.6968102455 1.5531001091 -0.8068000674
H  7.8367905617 3.5495903492 -1.7348101139
H  7.9916105270 0.4882600307 -1.0708500147
H  9.3487501144 1.4999902248 -1.7486702204
