13

C  0.8501200676 0.1260700077 -0.0090300003
C  2.3333702087 0.0555700026 -0.0009700001
C  3.2089102268 1.0755200386 0.0047000004
N  4.5236005783 0.6900900602 0.0120200012
C  4.7451004982 -0.6525000334 0.0129900016
N  5.8549904823 -1.2906000614 0.0198500026
S  3.1849203110 -1.4933900833 0.0031000003
H  0.5010200143 1.1640900373 -0.0067400006
H  0.4340000153 -0.3676300347 0.8751700521
H  0.4441000223 -0.3604600430 -0.9018601179
H  2.9735703468 2.1313402653 0.0040900004
H  5.2883300781 1.3464400768 0.0175300017
H  5.6239504814 -2.2902700901 0.0182200018
