13

O  2.7134501934 -0.6761600375 -0.4827000499
C  2.2715301514 0.1713800132 0.2899100184
C  2.9178702831 1.5247601271 0.5453300476
N  4.3305501938 1.4826600552 0.1549000144
C  4.9677705765 2.8054003716 0.1632100195
C  4.4720501900 3.7380702496 -0.8712700605
N  4.0600500107 4.4666199684 -1.6755501032
H  1.3050301075 0.0142600015 0.8002800345
H  2.8308002949 1.7410300970 1.6143701077
H  2.3410601616 2.2615303993 -0.0219600014
H  4.4054403305 1.0549100637 -0.7728800774
H  6.0429401398 2.6566400528 0.0100400001
H  4.8630604744 3.2582702637 1.1565700769
