18

N  1.9314401150 -0.7309400439 -1.1307700872
C  2.6899502277 -0.3530900478 0.0510700047
C  2.9317603111 1.1201599836 0.0305500012
C  4.1493802071 1.6901001930 0.0251400024
C  4.3831801414 3.1726603508 -0.0011400002
C  5.1512703896 3.6207101345 1.2079900503
C  6.3569006920 4.2032804489 1.1653801203
H  1.7890101671 -1.7390501499 -1.1234800816
H  2.4961802959 -0.5336300135 -1.9560401440
H  3.6281502247 -0.9174801111 0.0841100067
H  2.1170802116 -0.6101700664 0.9480600953
H  2.0429999828 1.7476100922 0.0271800030
H  5.0384402275 1.0627200603 0.0245700032
H  3.4337503910 3.7201502323 -0.0332100019
H  4.9231305122 3.4228901863 -0.9220800996
H  4.6754202843 3.4637804031 2.1741502285
H  6.8694505692 4.3875102997 0.2262600213
H  6.8575305939 4.5100803375 2.0787003040
