16

N  1.0278501511 0.0198700018 0.0766500086
C  2.4801602364 -0.0084500005 -0.0515500046
C  3.1004302502 1.0425101519 0.8989000320
C  4.1551899910 -0.0380400047 1.2562700510
C  3.0674903393 -1.0824900866 0.9070300460
N  3.6620702744 -2.1731002331 0.1378100067
H  0.5655800104 -0.7715600729 -0.3686600327
H  0.5991800427 0.8562800884 -0.3156700134
H  2.8657302856 0.0187200010 -1.0764100552
H  2.4826202393 1.3405100107 1.7558300495
H  3.4951801300 1.9421101809 0.4192200303
H  5.0329904556 -0.0152800018 0.5980200768
H  4.4946498871 -0.0352800041 2.2957701683
H  2.4492001534 -1.3904401064 1.7577000856
H  4.2258200645 -1.8787401915 -0.6579200625
H  2.9691901207 -2.8221902847 -0.2316000164
