15

O  1.3502200842 0.1411800086 0.8495200872
C  2.4013001919 0.0614700057 0.2153500170
C  3.1011602879 -1.2799601555 -0.0496100038
N  3.9964203835 -1.2687201500 -1.2278600931
C  4.8957800865 -0.1125500053 -1.1658900976
C  4.0807604790 1.1837999821 -1.1888401508
N  3.0547301769 1.2066700459 -0.1690200120
H  2.3288600445 -2.0384202003 -0.2131400257
H  3.6668400764 -1.5463300943 0.8505000472
H  4.5418906212 -2.1294600964 -1.2274900675
H  5.5113501549 -0.1632500142 -0.2594500184
H  5.5741505623 -0.1317900121 -2.0251901150
H  4.7279806137 2.0519001484 -1.0307401419
H  3.5782001019 1.3024600744 -2.1556401253
H  2.5210301876 2.0531301498 -0.0180900004
