9

N  0.9811300635 -0.0983300060 0.0000000000
C  2.3365902901 0.0083800005 0.0000000000
C  3.0535202026 1.1379899979 0.0000000000
C  4.4595203400 1.1379899979 0.0000000000
N  5.6105303764 1.1379899979 0.0000000000
H  0.5416800380 -1.0133800507 0.0000000000
H  0.3902600408 0.7256700397 0.0000000000
H  2.8353502750 -0.9617900848 0.0000000000
H  2.5593202114 2.1017601490 -0.0000000000
