19

C  2.1953301430 -0.4642000198 1.4061000347
C  2.2364401817 0.1775200069 0.0241100024
C  2.9360201359 1.5204001665 0.0284400005
C  2.2121202946 2.6531901360 0.0711000040
C  4.3890199661 1.6075100899 -0.0478500053
C  5.2528104782 0.5824200511 -0.1177600101
C  6.7364206314 0.7564900517 -0.2049800158
H  1.6789401770 -1.4280600548 1.3561800718
H  1.6535900831 0.1701200157 2.1163201332
H  3.1983802319 -0.6394000649 1.8032201529
H  1.2030700445 0.2951900065 -0.3286900222
H  2.7062201500 -0.5034700632 -0.6960400939
H  1.1277800798 2.6283900738 0.1198100150
H  2.6727201939 3.6361901760 0.0648000091
H  4.7995204926 2.6175103188 -0.0533300042
H  4.9063301086 -0.4459800422 -0.1159400046
H  7.0331201553 1.8097201586 -0.1952700168
H  7.1089301109 0.3058600426 -1.1301500797
H  7.2198805809 0.2577899992 0.6399400830
