17

C  3.9416501522 -0.6408000588 -1.4766601324
C  3.0474903584 -0.3566000164 -0.2789500356
O  3.2668004036 -1.3558400869 0.7148801088
C  3.2320902348 1.0445200205 0.3207500279
C  4.6530604362 1.3566499949 0.6925100088
C  5.0068607330 1.8867400885 2.0580000877
O  5.2035603523 0.5086700320 1.7096601725
H  3.8081703186 0.1107800081 -2.2609500885
H  3.7068901062 -1.6255301237 -1.8962501287
H  4.9990901947 -0.6747700572 -1.1922001839
H  2.0032401085 -0.4577800333 -0.5940500498
H  4.0991401672 -1.1278001070 1.1743800640
H  2.5928602219 1.1352601051 1.2082400322
H  2.8921504021 1.7982101440 -0.3997900188
H  5.2817301750 1.6140201092 -0.1495000124
H  4.2142901421 2.1165101528 2.7587003708
H  5.8892703056 2.5065402985 2.1561400890
