15

C  0.9080901146 -0.0449700058 0.1410200149
C  2.4045503139 0.0128600001 -0.0610700026
N  2.7777302265 0.1046000049 -1.4932200909
C  3.2057900429 1.0714399815 0.7566900849
N  4.1297202110 -0.0094200000 1.1372900009
C  3.2644102573 -1.0017000437 0.7692601085
O  3.2554602623 -2.1660602093 1.0846701860
H  0.6501300335 -0.0891300067 1.2047600746
H  0.4789200425 -0.9313500524 -0.3390600383
H  0.4165800214 0.8388400674 -0.2803900242
H  3.7840301991 0.0221300013 -1.6469200850
H  2.4888601303 0.9692800641 -1.9458001852
H  2.6934101582 1.4929801226 1.6280801296
H  3.6964502335 1.8714101315 0.1950599998
H  4.6355605125 -0.1401100010 2.0029401779
