15

C  0.9968000650 -0.0007100001 0.1973100156
C  2.4346101284 0.1165500060 -0.1870000064
C  3.1624202728 1.2383301258 -0.1233600080
C  4.6246004105 1.3643200397 -0.5227300525
N  4.9282503128 2.8411002159 -0.4580500424
C  3.8095803261 3.3541402817 -0.0280000027
N  2.7931001186 2.4994602203 0.2260900140
H  0.8105700612 -0.9877501130 0.6344200373
H  0.3593100309 0.1071400046 -0.6847800612
H  0.7049300075 0.7464700937 0.9408600330
H  2.9113502502 -0.7955000997 -0.5384700298
H  4.7981605530 1.0073601007 -1.5428700447
H  5.2772603035 0.8380300999 0.1825700104
H  3.6225502491 4.4248204231 0.1376200169
H  1.8314601183 2.7626402378 0.3748300374
