17

C  3.2633302212 -0.3822300136 0.4166300297
O  2.5275402069 0.8354300857 0.4361900389
C  3.1950201988 2.0266401768 0.2171900272
C  2.2429699898 3.1892101765 0.2786000073
C  4.5198402405 2.1346101761 -0.0151300011
C  5.3164701462 3.3728404045 -0.2675600052
O  6.3110103607 3.4695301056 0.7413501143
H  2.5625803471 -1.2001700401 0.6064000726
H  4.0184202194 -0.3956100047 1.2086800337
H  3.7174303532 -0.5494000316 -0.5649400353
H  1.7351601124 3.2017004490 1.2489300966
H  1.4823400974 3.0867502689 -0.5024000406
H  2.7181701660 4.1623601913 0.1493400037
H  5.1372504234 1.2408601046 -0.0459800027
H  4.7363805771 4.2962598801 -0.2661500275
H  5.8205804825 3.2967600822 -1.2356901169
H  5.8437504768 3.4724402428 1.5945801735
