12

O  0.9174500704 -0.1512300223 0.0418900065
C  2.1484203339 -0.1018200070 0.0105300015
C  2.8223602772 1.2286000252 -0.0537200049
C  4.3173303604 1.2373100519 -0.0413400009
C  4.9130806923 -0.1125700101 0.0033800001
N  4.2815303802 -1.2342901230 0.0272400025
O  2.8776502609 -1.2413799763 0.0129800010
H  2.4568800926 1.8188101053 0.7954400778
H  2.4698600769 1.7254401445 -0.9654000998
H  4.6950602531 1.7984601259 0.8211700916
H  4.7095103264 1.7479201555 -0.9292101264
H  6.0157704353 -0.1559600085 0.0169400014
