17

N  1.5768902302 -2.0493502617 -0.6398600936
C  1.5439701080 -0.8514200449 0.1975400150
C  2.6791703701 0.1173000112 -0.1391099989
C  4.0811901093 -0.4896600544 -0.1224600151
C  4.4258604050 -1.0911600590 1.2182800770
N  4.1239700317 -2.4157700539 1.3428801298
O  4.9085807800 -0.4530000389 2.1444101334
H  0.7373000383 -2.6011402607 -0.4543700516
H  1.5003001690 -1.7703601122 -1.6207300425
H  1.5928601027 -1.1486901045 1.2495901585
H  0.5844400525 -0.3411800265 0.0571600050
H  2.6395001411 0.9496700764 0.5743700266
H  2.5021400452 0.5489200354 -1.1324001551
H  4.8256502151 0.2845900059 -0.3432600200
H  4.1900105476 -1.2489600182 -0.9055300355
H  3.4561202526 -2.8370602131 0.7017600536
H  4.2386798859 -2.8300900459 2.2577402592
