9

C  1.0000001192 0.0000000000 0.0000000000
C  2.4440002441 0.0000000000 0.0000000000
C  3.6341602802 0.0000000000 0.0000000000
C  5.0795602798 -0.0000000000 -0.0000000000
C  6.3761301041 -0.0000000000 -0.0000000000
H  0.4724200368 1.2306700945 0.0207100008
H  0.4849500358 -0.6139600277 1.0716100931
H  0.4869100451 -0.6005900502 -1.0918401480
H  7.5112905502 -0.0000000000 -0.0000000000
