15

C  3.4384002686 -0.9519000649 -2.4422101974
C  3.5328104496 -0.5123100281 -1.3294401169
C  3.6461904049 0.0257200003 0.0340800025
C  4.3788399696 1.3551201820 0.0305100009
C  3.6102802753 2.5739002228 -0.4950400293
O  3.8547701836 3.3052804470 0.7303600311
C  4.3754501343 2.1127700806 1.3626101017
H  3.3540003300 -1.3442801237 -3.4302201271
H  4.1896305084 -0.6910400391 0.6610900164
H  2.6452600956 0.1318700165 0.4699000418
H  5.3898000717 1.2786000967 -0.3915800452
H  2.5372402668 2.4400701523 -0.6635500789
H  4.0607705116 3.0701003075 -1.3592901230
H  5.3621907234 2.2850601673 1.8017101288
H  3.6893601418 1.7450702190 2.1319901943
