18

C  1.3429900408 -0.1635000110 -0.3580800295
C  2.7456002235 0.1155700088 0.0821400061
C  3.5939202309 -1.0233900547 0.5911100507
N  3.8593602180 -0.4443500340 -0.7237400413
C  4.9128403664 0.5881000161 -0.7196800709
C  4.2202100754 1.9066400528 -0.3916600347
C  3.0735802650 1.5149301291 0.5253300667
H  0.9841000438 0.6204900146 -1.0327601433
H  0.6780000329 -0.1978100091 0.5108200312
H  1.2593601942 -1.1200600863 -0.8847801089
H  3.1788501740 -2.0242302418 0.5846700072
H  4.3043603897 -0.8442900777 1.3911601305
H  5.6979908943 0.3608800173 0.0118600009
H  5.3907203674 0.6408800483 -1.7034300566
H  4.8933501244 2.6352100372 0.0691700056
H  3.8188703060 2.3483302593 -1.3123900890
H  3.3878903389 1.5221400261 1.5749200583
H  2.2313899994 2.2076802254 0.4201400280
