15

C  0.9698100686 -0.0740500093 -0.1379900128
C  2.4276802540 0.0738100037 0.1541400105
C  3.1318302155 1.2125301361 0.0935800076
C  4.6006102562 1.3789900541 0.3805600405
O  4.8959102631 2.7951800823 0.2732700109
C  3.6899902821 3.3579103947 -0.0922600105
C  2.6633403301 2.5284502506 -0.2149200141
H  0.7711600661 -1.0815300941 -0.5151200294
H  0.6261500120 0.6304700375 -0.8997800350
H  0.3843300045 0.0682200044 0.7742601037
H  2.9451203346 -0.8405600190 0.4400000274
H  5.2161307335 0.8478600383 -0.3528400362
H  4.8588700294 1.0494700670 1.3919100761
H  3.7126002312 4.4242806435 -0.2319100201
H  1.6542301178 2.8017799854 -0.4792400599
