16

C  1.2530300617 -0.2201700211 -0.2840900123
O  2.6647300720 -0.0641800016 -0.2548900247
C  3.0374600887 1.2721000910 0.0710400045
C  4.5299401283 1.3478600979 0.0960700065
C  5.3013405800 1.7988700867 -1.1178901196
C  5.2259106636 2.6849701405 0.0952300131
H  1.0264201164 -1.2696200609 -0.4900900424
H  0.8182100058 0.3938000202 -1.0784600973
H  0.8146500587 0.0476800054 0.6821600199
H  2.6455903053 1.5297300816 1.0615601540
H  2.6152904034 1.9637701511 -0.6677200198
H  4.9597601891 0.5622100234 0.7076500058
H  4.7499198914 2.0962002277 -2.0027401447
H  6.2412104607 1.3016000986 -1.3302700520
H  6.1175603867 2.7894902229 0.7030700445
H  4.6262102127 3.5851402283 0.0294300020
