18

C  0.9834500551 0.1061900109 0.0735400096
C  2.4797101021 -0.1260199994 -0.0174100008
O  3.2138001919 0.9234200120 0.6810600162
C  4.1186900139 -0.0706400052 1.2448600531
C  3.1414301395 -1.2082101107 0.8833300471
C  2.3868901730 -1.8363802433 2.0328502655
N  3.8246202469 -2.2098202705 0.0435000062
H  0.4393100142 -0.7439700365 -0.3491200209
H  0.6996400356 0.9995601177 -0.4924700260
H  0.6520300508 0.2465800196 1.1058001518
H  2.7931101322 -0.1448599994 -1.0702601671
H  5.0846400261 -0.0474600047 0.7278800607
H  4.2789201736 0.0990400091 2.3134601116
H  1.9392601252 -1.0761899948 2.6827402115
H  3.0523502827 -2.4444103241 2.6579701900
H  1.5801501274 -2.4829902649 1.6730501652
H  4.3727803230 -1.8214200735 -0.7247600555
H  3.1948301792 -2.8919904232 -0.3789700270
