12

C  0.9343200922 0.0298000015 -0.0053500002
C  2.4213700294 0.0319300033 -0.0015200000
N  3.0673601627 1.2004500628 -0.0001800000
S  4.7011103630 0.9150600433 0.0038300003
C  4.5862202644 -0.7934500575 0.0036600004
C  3.2533900738 -1.1291300058 0.0005100000
O  2.8078103065 -2.4011402130 -0.0005300001
H  0.5271500349 1.0460900068 0.0038300003
H  0.5527500510 -0.4947300553 0.8765200973
H  0.5576500893 -0.4770500362 -0.8995800614
H  5.4649906158 -1.4199901819 0.0057600006
H  3.5508103371 -3.0280802250 0.0014300001
