17

C  1.9984101057 -0.4805700183 -1.3396401405
O  2.2272000313 0.0915900022 -0.0604000054
C  3.0568702221 1.2730400562 -0.0396600030
C  2.3858201504 2.5951702595 -0.4804000556
C  3.1654102802 3.3031201363 0.6416500211
C  3.2584502697 1.9387900829 1.3600701094
O  4.4949502945 1.6668500900 2.0519802570
H  1.3663500547 -1.3639301062 -1.2181301117
H  2.9473702908 -0.7828600407 -1.7918601036
H  1.4859300852 0.2354300171 -1.9883801937
H  4.0127801895 1.0867700577 -0.5479900837
H  1.2981400490 2.6105902195 -0.3442500234
H  2.6211302280 2.9294202328 -1.4943500757
H  4.1324400902 3.7086904049 0.3232800066
H  2.6123001575 4.0813302994 1.1740801334
H  2.4115903378 1.7616200447 2.0356001854
H  5.1960601807 1.7535201311 1.3850601912
