17

C  2.1168100834 0.0382800028 0.7814700603
C  3.4905002117 -0.1643200070 0.1642600149
N  4.1668405533 1.1286200285 0.1232600138
C  5.3716902733 1.1848400831 -0.3582600355
C  6.1263003349 -0.0173000004 -0.8834000826
N  6.0290403366 2.4003303051 -0.4020800292
O  5.1566100121 3.4958600998 -0.3453200161
H  1.5727801323 -0.9103100300 0.8256400824
H  1.5245001316 0.7481500506 0.1940800101
H  2.2001900673 0.4350300431 1.7990502119
H  3.3676800728 -0.5726200938 -0.8446800113
H  4.0492901802 -0.8806400895 0.7759900689
H  5.5800404549 -0.4611900151 -1.7198802233
H  6.2433900833 -0.7580900788 -0.0880300030
H  7.1213202477 0.2712400258 -1.2342201471
H  6.7827005386 2.5113101006 -1.0757001638
H  4.3707799911 3.1162800789 0.1116900146
