13

C  0.9571000934 -0.0439900048 -0.0018100002
C  2.4773602486 -0.0190100018 -0.0052000005
C  3.0142202377 1.4108401537 0.0081300009
C  4.4845805168 1.4247200489 0.0047200001
C  5.6853103638 1.4396201372 0.0019700001
H  0.5949100852 -1.0767600536 -0.0115000000
H  0.5545000434 0.4654600322 -0.8831200600
H  0.5587599874 0.4473100305 0.8916500807
H  2.8443102837 -0.5504600406 -0.8920400739
H  2.8485302925 -0.5684500337 0.8688300252
H  2.6460802555 1.9380700588 0.8959800601
H  2.6418402195 1.9560900927 -0.8669900298
H  6.7512106895 1.4526101351 -0.0004800000
