15

C  0.9903401136 0.0039700004 0.1722400039
C  2.4513201714 0.0143300015 -0.0666500032
C  3.2795202732 -1.0155601501 -0.2494100183
O  4.5956807137 -0.6471900344 -0.4642900527
C  4.6361503601 0.7431400418 -0.4291300476
C  5.7570900917 1.4379100800 -0.6384200454
C  3.2544903755 1.2781500816 -0.1495400071
H  0.5929500461 -1.0161499977 0.1792100221
H  0.4718500078 0.5618600249 -0.6137300134
H  0.7568800449 0.4648900330 1.1367701292
H  3.0844802856 -2.0730602741 -0.2614400089
H  6.6925806999 0.9272000790 -0.8405700922
H  5.7606201172 2.5215303898 -0.6160900593
H  2.9024701118 1.9158201218 -0.9660100341
H  3.2252602577 1.8224401474 0.7994800210
