15

C  0.8750000596 -0.1621199995 0.1936300099
C  2.3601701260 0.0075000008 0.2379600108
C  3.0623102188 1.1358000040 0.0086700004
C  2.5164701939 2.4966502190 -0.2989900410
C  4.5462403297 1.0992200375 0.1253800094
O  5.0986499786 0.0473900065 -0.5138600469
O  5.1985201836 1.9670801163 0.6792900562
H  0.6196900010 -0.9692701101 -0.5015700459
H  0.3381300271 0.7323700786 -0.1294800192
H  0.5043900609 -0.4394900501 1.1859501600
H  2.8903002739 -0.8990200162 0.5293000937
H  1.4298601151 2.5127000809 -0.4038100243
H  2.9381401539 2.8683202267 -1.2390400171
H  2.7762501240 3.2030401230 0.4972800314
H  4.4541301727 -0.4705000520 -1.0300900936
