14

C  1.0011401176 -0.0627400056 0.0300400034
O  2.4200601578 -0.0066500008 0.0289100017
C  2.8940103054 1.3385500908 0.0000000000
C  4.3380103111 1.3385500908 0.0000000000
C  5.5281705856 1.3385500908 0.0000000000
C  6.9721708298 1.3385500908 0.0000000000
H  0.6970000863 -1.1110700369 0.0526600033
H  0.5981299877 0.3988100290 -0.8773200512
H  0.5981500745 0.4373700321 0.9170801044
H  2.5146501064 1.8745201826 0.8774001002
H  2.5146501064 1.8363401890 -0.8996100426
H  7.3662509918 2.3594002724 -0.0116800005
H  7.3662204742 0.8179900646 -0.8782400489
H  7.3662204742 0.8382200599 0.8899201155
