19

C  0.7984200716 0.2778900266 -0.4286600351
C  2.2362501621 0.0531600043 -0.0345400013
C  2.5361201763 0.1017000079 1.4580200911
C  1.6416500807 -0.7990200520 2.3077800274
O  1.8559302092 -2.1721401215 2.0040700436
C  3.0782902241 -0.8526500463 -0.9117100835
C  3.2945303917 0.6325200796 -0.9530100822
H  0.6881400347 0.4213200212 -1.5087200403
H  0.3978700340 1.1662101746 0.0698100030
H  0.1842200160 -0.5850800872 -0.1515400112
H  2.4233603477 1.1376700401 1.7987201214
H  3.5816903114 -0.1827700138 1.6304401159
H  0.5795700550 -0.5709200501 2.1768603325
H  1.8799201250 -0.6578300595 3.3669302464
H  1.6901100874 -2.2830200195 1.0516700745
H  2.6205601692 -1.3171600103 -1.7785001993
H  3.8499903679 -1.4602200985 -0.4512900412
H  4.2072706223 1.0246400833 -0.5150400400
H  2.9814603329 1.1680001020 -1.8423100710
