16

C  1.1260200739 -0.3465800285 -0.3977300525
O  2.5315802097 -0.1638200134 -0.2915000319
C  2.8821601868 1.2197800875 -0.2897100151
C  4.3908205032 1.3688000441 -0.1520700157
O  4.7193102837 2.7586202621 -0.1593700051
N  6.1093206406 2.8887603283 -0.0191900022
C  6.4100608826 4.1417903900 -0.0328800008
H  0.9180700779 -1.4198601246 -0.4093800187
H  0.7506700754 0.0924500078 -1.3271801472
H  0.6167100668 0.0986400098 0.4624400437
H  2.3819301128 1.7322400808 0.5409899950
H  2.5460500717 1.6911901236 -1.2212100029
H  4.8977108002 0.8607600331 -0.9812400937
H  4.7307701111 0.9087600708 0.7836100459
H  7.4606208801 4.4558906555 0.0659100041
H  5.6561903954 4.9401602745 -0.1409800202
