14

C  0.9503100514 -0.0094400002 -0.0829400048
C  2.4270403385 0.0319100022 0.1401299983
C  3.1587202549 1.1488701105 0.0283000022
C  4.6157402992 1.1103601456 0.2669900358
N  5.3409404755 2.1788001060 0.1612200141
N  6.6525201797 1.9570701122 0.4087100327
H  0.7153400779 -0.7056300640 -0.8938700557
H  0.5435400009 0.9719600677 -0.3469600379
H  0.4459100366 -0.3551300466 0.8245500326
H  2.8965103626 -0.9120401144 0.4074900448
H  2.7344303131 2.1114401817 -0.2329300046
H  5.0449905396 0.1283900142 0.5403400064
H  7.1338605881 2.8570401669 0.4847800434
H  7.0955009460 1.4945800304 -0.3894500434
