16

C  1.0550700426 -0.1254700124 -0.0235000011
N  2.4952702522 0.0043600001 0.1542400122
C  2.9607002735 1.3856801987 0.0000000000
C  2.4890003204 2.2410001755 1.1481000185
C  1.7571301460 3.3572101593 1.0291401148
C  4.4047007561 1.3856801987 0.0000000000
C  5.5948605537 1.3856801987 0.0000000000
H  0.7824600339 -1.1852900982 0.0182000026
H  0.7275400758 0.2649800181 -0.9925900698
H  0.4995500445 0.3771200180 0.7748200893
H  2.9645302296 -0.5631600618 -0.5495399833
H  2.6052803993 1.7904500961 -0.9563601017
H  2.7699401379 1.9018100500 2.1440103054
H  1.4450900555 3.7372002602 0.0624200031
H  1.4530701637 3.9138503075 1.9116901159
H  6.6600904465 1.3840001822 0.0085800011
