15

C  2.0444500446 -0.3019500375 -0.2235700190
O  3.2749602795 0.4097300470 -0.1886000037
C  3.2498602867 1.7887501717 -0.2005700022
C  2.1229200363 2.5210101604 -0.2231100202
N  4.4878706932 2.4003102779 -0.1901600212
C  5.7366104126 1.8515400887 -0.1386700124
N  6.0732502937 0.6125200391 -0.0748500004
H  2.2754399776 -1.3713700771 -0.2314100116
H  1.4834901094 -0.0737900063 -1.1356700659
H  1.4467400312 -0.0934400037 0.6695100665
H  1.1320000887 2.0847501755 -0.2302600145
H  2.1554100513 3.6055402756 -0.2311900109
H  4.4522504807 3.4116103649 -0.2201700211
H  6.5294103622 2.6190202236 -0.1542700082
H  5.1942200661 0.0729700103 -0.0707400069
