17

C  0.9800300598 -0.0226600021 0.0214200020
C  2.4939901829 0.0195400007 -0.1554500014
C  3.0541703701 -1.2426301241 -0.8191100359
C  3.4358003139 -0.7368800640 -2.1555001736
C  3.2756202221 0.5831900239 -2.1804301739
C  3.5758402348 1.5085802078 -3.3070001602
O  2.8164403439 1.1516001225 -0.9995500445
H  0.6264600754 0.9089300632 0.4757800400
H  0.6789700389 -0.8590201139 0.6584400535
H  0.4701200426 -0.1131600067 -0.9444301128
H  2.9642701149 0.1782700121 0.8203000426
H  2.3242602348 -2.0554101467 -0.8711100221
H  3.9404203892 -1.6068100929 -0.2880900204
H  3.8021302223 -1.3440700769 -2.9691503048
H  3.8046302795 2.5123603344 -2.9359002113
H  2.7143001556 1.5803900957 -3.9786303043
H  4.4414701462 1.1623401642 -3.8831002712
