19

N  1.1479400396 2.1487102509 0.3491900265
C  2.4945302010 1.8749301434 -0.1375300139
C  3.4069104195 1.4460101128 1.0111800432
C  4.7960205078 1.1233700514 0.4763600230
C  5.6952204704 2.3064203262 0.0437200032
C  6.8165502548 1.5271301270 0.7501100898
N  5.7720804214 0.8782700896 1.5734001398
H  0.5773000717 2.5112900734 -0.4131700397
H  1.1812101603 2.8822901249 1.0564100742
H  2.8934102058 2.7710802555 -0.6254100800
H  2.4472303391 1.0858701468 -0.8960600495
H  2.9875001907 0.5584100485 1.5024300814
H  3.4546704292 2.2410302162 1.7669701576
H  4.7805705070 0.3066100180 -0.2592900097
H  5.4552803040 3.2666802406 0.5156800151
H  5.8161501884 2.4523501396 -1.0323700905
H  7.3604702950 0.8327500820 0.0990100056
H  7.5346302986 2.1313900948 1.3103101254
H  5.9405503273 -0.1040800065 1.7845501900
