15

C  3.3704104424 -1.2091701031 0.5767100453
O  2.5623602867 -0.0878000036 0.2337500304
C  3.2069401741 1.1009100676 0.0200500004
C  4.5176405907 1.3668601513 0.0805100054
C  4.9834704399 2.7412903309 -0.1862700135
N  6.2428102493 3.0414702892 -0.1325100064
N  6.4883804321 4.3451604843 -0.3957900405
H  2.7104501724 -2.0709002018 0.7132600546
H  3.8996603489 -1.0353100300 1.5194001198
H  4.0740804672 -1.4454700947 -0.2281800210
H  2.4621200562 1.8530201912 -0.2221400142
H  5.2800602913 0.6372700930 0.3155800402
H  4.2065801620 3.4893901348 -0.4318500459
H  7.4949107170 4.4747004509 -0.5296200514
H  6.2620601654 4.9245100021 0.4170800447
