16

N  2.5593400002 -0.6074900627 -1.3205901384
C  2.3089201450 0.0604700036 -0.0534700043
C  2.8730101585 1.4340600967 -0.0370800011
C  2.2100002766 2.5940601826 0.1291500181
C  3.1470601559 3.6889603138 0.1225300133
C  4.3886303902 3.2118403912 -0.0399600044
C  4.3460001945 1.7156200409 -0.1644000113
H  2.0974802971 -1.5142800808 -1.3136399984
H  3.5540304184 -0.7993500829 -1.4115400314
H  2.7415802479 -0.5264500380 0.7646100521
H  1.2266800404 0.0950700119 0.1165000051
H  1.1451301575 2.7116801739 0.2555000186
H  2.8688101768 4.7262606621 0.2331800163
H  5.2895803452 3.8041803837 -0.0851000100
H  4.7381205559 1.3977301121 -1.1348100901
H  4.9141402245 1.2409400940 0.6411800385
