17

N  0.6290800571 1.1130601168 -0.9252700806
N  1.9544202089 0.9681200981 -1.1420201063
C  2.6681103706 1.2376900911 -0.0953000113
C  4.1671905518 1.1279799938 -0.1423800141
C  4.7865304947 2.5055704117 0.0564100035
C  6.2870001793 2.4406003952 0.0149200009
C  7.0835905075 2.7723903656 1.0388500690
H  0.1422000080 1.1064300537 -1.8258801699
H  0.2556500137 0.2968000174 -0.4327700436
H  2.2195100784 1.5615601540 0.8627100587
H  4.4730801582 0.6928700209 -1.1004500389
H  4.4752902985 0.4467400312 0.6589300632
H  4.4427204132 2.9360501766 1.0048100948
H  4.4439907074 3.1874802113 -0.7323300838
H  6.7393007278 2.1099402905 -0.9190000892
H  6.6845808029 3.1153502464 1.9880601168
H  8.1635704041 2.7090702057 0.9434500337
