19

C  2.4316000938 -0.4739700556 -1.5432901382
C  2.4234402180 0.0420300029 -0.1121200100
C  3.3241603374 1.2639001608 0.0362200029
N  2.7428500652 2.5003402233 -0.5632500648
C  3.2647800446 3.2741603851 0.5932500362
C  3.2730503082 1.9709501266 1.4172900915
N  4.5478305817 1.8194301128 2.1257703304
H  1.8107300997 -1.3711501360 -1.6265200377
H  3.4470903873 -0.7298800349 -1.8617300987
H  2.0405902863 0.2757000327 -2.2379901409
H  2.7828001976 -0.7542901039 0.5507600307
H  1.3934701681 0.2669800222 0.1913300157
H  4.3402404785 1.0661799908 -0.3351100385
H  1.7229901552 2.4958600998 -0.6050300002
H  4.2408404350 3.7316403389 0.3887800276
H  2.5886802673 4.0542802811 0.9565700889
H  2.3746602535 1.7977200747 2.0180602074
H  5.3686904907 2.0356802940 1.5585200787
H  4.7016501427 0.8791500926 2.4877302647
