15

O  2.2096202374 -0.5293100476 1.1855400801
C  2.2617402077 0.0417200029 -0.1108800024
C  2.8464801311 1.4222700596 -0.0329200029
N  4.0941104889 1.6806900501 -0.2846100032
N  4.2560501099 2.9994103909 -0.0171500016
C  2.9821703434 3.7074902058 0.0410800017
C  2.0332400799 2.5906903744 0.4276300073
H  3.1333000660 -0.5853300691 1.4946200848
H  1.2472901344 0.0957400054 -0.5147200227
H  2.8704302311 -0.5943800807 -0.7600300312
H  4.9409203529 3.4473302364 -0.6280200481
H  2.7247402668 4.1073603630 -0.9460300803
H  2.9902303219 4.5244803429 0.7672600150
H  1.0759500265 2.6450803280 -0.0950900093
H  1.8825801611 2.5203402042 1.5088800192
