21

C  4.1685705185 -1.4749001265 1.3607201576
C  4.1394305229 -0.8665700555 -0.0318300016
C  3.9535303116 0.6226900816 0.0225500017
C  4.9107704163 1.5716700554 -0.0169100016
C  6.3878402710 1.2947901487 -0.1004500091
C  4.5310606956 3.0370502472 0.0190500021
C  4.5952200890 3.6132202148 1.4264100790
H  4.2617001534 -2.5636904240 1.2959702015
H  3.2518904209 -1.2460100651 1.9146602154
H  5.0190706253 -1.0975201130 1.9386701584
H  3.3054201603 -1.2976400852 -0.5991100669
H  5.0460104942 -1.1416101456 -0.5797900558
H  2.9137403965 0.9404000640 0.1024900079
H  6.6320004463 0.2308900207 -0.0532800034
H  6.9132308960 1.7786700726 0.7291700244
H  6.7911705971 1.6873401403 -1.0396701097
H  3.5176701546 3.1782402992 -0.3749200106
H  5.1924705505 3.6060402393 -0.6449100375
H  3.9072000980 3.0880901814 2.0992801189
H  4.3106002808 4.6707100868 1.4142401218
H  5.6039505005 3.5411202908 1.8468102217
