11

C  0.8996500373 0.0379100032 -0.0078300005
C  2.3822002411 0.0851400048 0.0001000000
C  3.2423002720 1.1655601263 0.0028800003
C  4.5940003395 0.7163100243 0.0106600011
N  4.7935500145 -0.5969300270 0.0137300007
S  3.3151600361 -1.3511101007 0.0069900006
H  0.4767800272 1.0481200218 -0.0004300000
H  0.5216800570 -0.4893100262 0.8742300868
H  0.5313200355 -0.4724600315 -0.9037600756
H  2.9307003021 2.2004401684 -0.0004300000
H  5.4720306396 1.3505700827 0.0142700011
