14

C  3.1899900436 -0.8660100698 -1.1168600321
O  2.5409700871 0.0200700015 -0.2116600275
C  3.1731901169 1.1974700689 0.0733200088
C  4.3574604988 1.6491601467 -0.3646600246
C  4.9294605255 2.9704101086 0.0265600029
O  6.1639404297 2.7451303005 0.6876100898
H  2.5596201420 -1.7534601688 -1.2292801142
H  4.1598405838 -1.1876500845 -0.7250500321
H  3.3003902435 -0.4029200375 -2.1032500267
H  2.5496799946 1.7677100897 0.7551701069
H  4.9673099518 1.0647400618 -1.0465401411
H  4.2717003822 3.5363004208 0.6938900352
H  5.1197805405 3.5770204067 -0.8637700677
H  5.9748802185 2.1639003754 1.4443200827
