13

C  1.1064300537 0.0359800011 0.0691600069
C  2.3078503609 0.0366400033 0.0665900037
C  3.7356202602 0.0433200039 0.0618200041
N  4.3166503906 -1.1047899723 -0.1057700142
C  5.7635002136 -0.7222200036 -0.0948900133
C  5.8142504692 0.8115500808 -0.2363000214
N  4.4756302834 1.1776701212 0.1680600196
H  0.0418600067 0.0216900017 0.0731200054
H  6.2066807747 -1.0448300838 0.8541100621
H  6.2957406044 -1.2132501602 -0.9154000878
H  5.9870104790 1.0988000631 -1.2789901495
H  6.5810804367 1.2627900839 0.3987800181
H  4.0705704689 2.0195102692 -0.2209600061
