14

O  0.9865800738 0.0178200006 0.0725900009
C  2.4038002491 -0.0144100012 -0.0042500002
C  3.0212302208 1.1299700737 0.7930200696
N  4.2544102669 0.5895200372 1.2761601210
C  4.2477107048 -0.7862700820 1.2889900208
O  5.1231608391 -1.4854701757 1.7679501772
C  2.9707002640 -1.2707800865 0.6549100876
H  0.6473200321 -0.7534900904 -0.4149400294
H  2.7098100185 0.0430700034 -1.0554101467
H  2.4043402672 1.4265100956 1.6479500532
H  3.2189903259 2.0102901459 0.1752800196
H  4.9753904343 1.1048401594 1.7640901804
H  3.1825602055 -2.0448501110 -0.0874700099
H  2.3061401844 -1.6719301939 1.4261600971
