12

N  1.0000001192 0.0000000000 0.0000000000
C  2.1510102749 0.0000000000 0.0000000000
C  3.5570101738 0.0000000000 0.0000000000
C  4.3357200623 -1.0722700357 -0.0872400105
O  5.6948204041 -0.8317900896 -0.0994300097
C  5.7769804001 0.6023800373 -0.2625200152
C  4.4155101776 1.2024401426 0.0797500089
H  4.0605001450 -2.1133801937 -0.1325900108
H  6.0481505394 0.8084900379 -1.3060001135
H  6.5705904961 0.9940201044 0.3807500303
H  4.1389803886 1.9901401997 -0.6270800829
H  4.4106101990 1.6182202101 1.0929601192
