15

C  1.0926501751 0.0914800018 0.1757800132
C  2.3402302265 -0.1170200109 -0.2507800162
O  2.6900804043 -1.3654900789 -0.7623700500
C  4.0692205429 -1.2647701502 -1.1880201101
C  4.5609903336 0.1167100146 -0.8915000558
C  3.9921703339 1.3330501318 -1.5739401579
C  3.4267501831 0.8580500484 -0.2660900354
H  0.7849800587 1.0544300079 0.5658400655
H  0.3556800187 -0.7029700279 0.1346199960
H  4.6474604607 -2.0156402588 -0.6401200294
H  4.1210203171 -1.4873200655 -2.2585601807
H  5.5415401459 0.1607200056 -0.4428400099
H  4.5814905167 2.2425701618 -1.5666301250
H  3.4015901089 1.1980000734 -2.4733302593
H  3.6182603836 1.4182900190 0.6396800280
