18

C  0.9523400664 0.0244200025 -0.6932000518
C  2.4189002514 0.0118400017 -0.4114700258
C  3.2160704136 1.0852100849 -0.5296800137
C  4.6551699638 1.1126700640 -0.2625900209
C  5.5996904373 0.5315200090 -1.2920200825
N  5.4653501511 1.9714201689 -1.1228300333
C  6.5947704315 2.5822803974 -0.4297900498
H  0.7208100557 -0.6815800667 -1.4969701767
H  0.5958800316 1.0148299932 -0.9956901073
H  0.3982900381 -0.2784000039 0.2010400146
H  2.8441300392 -0.9379000664 -0.0978800133
H  2.7770102024 2.0314702988 -0.8453900218
H  4.9298505783 1.0368200541 0.7841800451
H  5.1881704330 0.1256400049 -2.2090001106
H  6.5039601326 0.0458300039 -0.9456400871
H  6.2720904350 3.5135302544 0.0475300066
H  7.3759503365 2.8350400925 -1.1544401646
H  7.0481004715 1.9494501352 0.3430800140
