17

C  0.9768500924 0.0074500004 -0.0268000029
C  2.4937403202 0.0335200019 0.0109700011
O  2.9672701359 0.1868500113 -1.3317101002
C  3.0688903332 1.1412000656 0.8689800501
C  4.4668502808 0.6299100518 1.1648200750
O  4.4344506264 -0.8032600284 1.0640600920
C  3.1114702225 -1.2020100355 0.6548900604
H  0.5459700227 -0.1006800085 0.9733000994
H  0.6199900508 -0.8220800161 -0.6479300857
H  0.5845300555 0.9270600677 -0.4746600389
H  3.9039902687 -0.0838400126 -1.3468700647
H  2.5115001202 1.2364001274 1.8086401224
H  3.0956802368 2.1193602085 0.3795700371
H  5.1897902489 0.9976700544 0.4293200374
H  4.8121304512 0.9191600680 2.1615402699
H  3.2032501698 -2.0459301472 -0.0347800031
H  2.5698201656 -1.5199701786 1.5522601604
