16

C  0.9844200611 -0.1347700208 -0.0646900088
C  2.4788501263 0.0373500027 0.1593300104
O  3.1912202835 -0.6483800411 -0.8827300668
C  2.9459199905 1.5053400993 0.1617200077
C  2.3391802311 2.3403301239 1.2771900892
O  4.3705902100 1.5282201767 0.3153400421
H  0.4000500441 0.2767900229 0.7632700205
H  0.7347700596 -1.1965600252 -0.1672400087
H  0.6680200696 0.3531100452 -0.9935600758
H  2.7729401588 -0.4473800361 1.0968400240
H  2.8369102478 -0.3438100219 -1.7368900776
H  2.7329001427 1.9678601027 -0.8092800975
H  2.5496799946 1.8958802223 2.2556302547
H  1.2571300268 2.4447700977 1.1634700298
H  2.7815501690 3.3423702717 1.2865900993
H  4.7021102905 0.7441300750 -0.1671000123
