17

C  1.9130201340 -0.2367900163 1.4262901545
C  2.2968699932 0.2237100154 0.0272800028
N  2.8959002495 1.5759801865 0.0639500022
C  2.0805702209 2.7061600685 0.0400100015
C  0.7481700182 2.8109502792 -0.0274900012
C  4.2807102203 1.6292401552 0.1790000200
N  5.0946307182 2.6260101795 0.2008700222
H  1.5160601139 -1.2557301521 1.3931300640
H  1.1464800835 0.4106600285 1.8621401787
H  2.7781803608 -0.2281400263 2.0958900452
H  1.4220701456 0.1992600113 -0.6338900328
H  3.0031902790 -0.4953800440 -0.4080300331
H  2.6369502544 3.6377403736 0.0932200104
H  0.0903000087 1.9522601366 -0.0752400011
H  0.2780900300 3.7895603180 -0.0302200019
H  4.7333402634 0.6253700852 0.2640500367
H  4.5896005630 3.5057203770 0.1068100110
