17

C  0.4741700590 1.2072900534 0.2136500180
C  1.7437602282 0.8049800396 -0.5193800330
C  2.9650602341 1.3419700861 0.1585200131
C  4.1504101753 1.7747501135 -0.6442300677
N  3.2897703648 2.7692301273 0.0173700005
C  3.8011302948 3.3951103687 1.1254800558
N  3.5675702095 4.6163005829 1.4627401829
H  -0.4014300406 0.7641300559 -0.2700100243
H  0.3506400287 2.2944099903 0.2140100151
H  0.4983800352 0.8722200394 1.2554601431
H  1.6851601601 1.1529201269 -1.5583300591
H  1.8122501373 -0.2885800004 -0.5523900390
H  3.1241502762 0.9192301035 1.1435099840
H  4.0800304413 1.8236300945 -1.7223001719
H  5.1438307762 1.6705402136 -0.2291400284
H  4.4609203339 2.7722303867 1.7548401356
H  2.9385600090 5.0074200630 0.7516200542
