20

C  0.9700201154 -0.2782199979 0.2080200166
C  2.4611001015 -0.1330500096 0.5003900528
N  2.9922802448 1.2203201056 0.2402000278
C  2.3278701305 2.2250401974 1.0807100534
C  4.4561800957 1.2750700712 0.4942800403
C  5.2702403069 0.5054399967 -0.5566400290
O  4.8681302071 0.9000900388 -1.8672300577
H  0.6818600893 -1.3331401348 0.2617200315
H  0.7244200110 0.0860300064 -0.7946100235
H  0.3577800393 0.2622200251 0.9373400807
H  2.9711701870 -0.8532701135 -0.1489400119
H  2.6571800709 -0.4380900264 1.5359001160
H  1.2658801079 2.3134803772 0.8287700415
H  2.7544503212 3.2192802429 0.9066901207
H  2.4188501835 1.9940401316 2.1479699612
H  4.7051701546 0.9239300489 1.5026401281
H  4.7752003670 2.3233802319 0.4233000576
H  5.1378002167 -0.5766500831 -0.4649900496
H  6.3374304771 0.7230500579 -0.4462400377
H  3.9100503922 1.0882999897 -1.7863502502
