15

C  0.9839300513 0.0265000034 -0.1449799985
C  2.4794201851 -0.0408700034 0.0995800048
C  3.1270301342 -1.2278901339 -0.5485600233
C  4.0740604401 -0.9017300606 -1.4347000122
C  4.2681107521 0.5710600019 -1.5847101212
C  3.2189302444 1.0757300854 -0.6191100478
O  2.9943504333 2.2697100639 -0.4357400537
H  0.5620300174 0.9343900681 0.2992900312
H  0.4750400186 -0.8359400630 0.2981400192
H  0.7473000884 0.0481600016 -1.2149500847
H  2.7222902775 -0.0115900012 1.1662700176
H  2.8539102077 -2.2471899986 -0.3040500283
H  4.6534104347 -1.6242702007 -1.9953401089
H  5.2642703056 0.8792900443 -1.2615600824
H  4.0448403358 0.9039101005 -2.6000702381
