14

N  2.9164900780 -1.0598400831 -0.5623400211
C  2.4230601788 0.1750600189 0.0675700083
C  3.3651900291 1.3956100941 -0.0667500049
O  3.3757700920 1.8802500963 -1.4329301119
C  3.0077800751 3.1902301311 -1.2462099791
C  2.7663502693 3.4889302254 0.0122900009
O  2.9345402718 2.4261400700 0.8652200699
H  2.2413601875 -1.8072800636 -0.4067800343
H  3.7832002640 -1.3539501429 -0.1146100089
H  2.2405099869 -0.0259400029 1.1296300888
H  1.4528101683 0.4202300310 -0.3798700273
H  4.3917703629 1.1170101166 0.2053500116
H  2.9521002769 3.8039803505 -2.1269800663
H  2.4568603039 4.4185404778 0.4545000196
