14

O  1.0853800774 -0.0741900057 0.1450100094
C  2.4764602184 0.0873700082 -0.0918100029
C  2.8584601879 -0.4940100312 -1.4244701862
C  2.0362300873 -1.0666301250 -2.3157901764
C  2.7776200771 1.5558501482 -0.0345000029
C  3.6266601086 2.1318302155 0.8284100890
H  0.8890800476 0.4133500159 0.9621900916
H  3.0116801262 -0.4587100148 0.6934600472
H  3.9179801941 -0.4427600205 -1.6670501232
H  0.9696601033 -1.1515500546 -2.1265802383
H  2.4143102169 -1.4621601105 -3.2523901463
H  2.2541501522 2.1805500984 -0.7560800314
H  4.1748704910 1.5536000729 1.5654101372
H  3.7935602665 3.2047102451 0.8069900274
