18

C  1.1003700495 0.1449200064 0.2354000211
N  2.4933202267 -0.0876400098 -0.1302600056
C  2.7266902924 -1.4840201139 -0.5527300239
C  2.7758402824 -1.4855201244 -2.0872502327
C  3.2074501514 -0.0975200012 -2.4466602802
C  2.2108500004 1.0215401649 -2.5134403706
C  2.9661600590 0.7705900669 -1.2404701710
H  0.9407200813 1.1999101639 0.4836800396
H  0.8427500725 -0.4351600409 1.1283800602
H  0.4007800221 -0.1312900037 -0.5609500408
H  1.9977802038 -2.2007203102 -0.1591000110
H  3.7096903324 -1.7839300632 -0.1690000147
H  3.4783601761 -2.2375102043 -2.4596402645
H  1.7847801447 -1.6955101490 -2.5060002804
H  4.1586303711 -0.0255400017 -2.9514501095
H  2.4791002274 1.9016301632 -3.0879101753
H  1.1576900482 0.7784200907 -2.5690202713
H  3.7357401848 1.4871400595 -0.9682800770
