14

C  1.2412500381 0.0815100074 -0.4452400506
O  2.6520802975 0.2578500211 -0.4166400433
C  3.1318502426 1.5020000935 -0.0755500123
C  2.4042003155 2.5905401707 0.2267500162
C  4.6231102943 1.6242600679 -0.0476400033
N  5.2797107697 2.6981999874 0.2592300177
O  6.6526403427 2.4328603745 0.1779700071
H  1.0374600887 -0.9552900791 -0.7292600870
H  0.7792100906 0.7324700356 -1.1946700811
H  0.8047300577 0.2510900199 0.5445300341
H  1.3223601580 2.5954201221 0.2313400209
H  2.8829503059 3.5316002369 0.4838400483
H  5.1575403214 0.6945300698 -0.3171200156
H  7.0457506180 3.2900602818 0.4267000258
