19

C  1.0642900467 0.0981000066 -0.1021900028
C  2.5533301830 0.0422800034 -0.0550800040
C  3.3803102970 -0.6876700521 -1.0822900534
N  2.7544803619 -1.4011400938 -2.1967601776
C  3.4455101490 0.8349000216 -0.9985500574
C  2.8533401489 1.6689801216 -2.1101701260
N  4.6584300995 1.4406701326 -0.4023500383
H  0.7031100392 0.9053500891 0.5440800786
H  0.6457300782 -0.8424400687 0.2724800408
H  0.6575400233 0.2663400173 -1.1026400328
H  2.8777101040 -0.0629000068 0.9763600230
H  4.2572803497 -1.2126200199 -0.7040000558
H  1.9162901640 -0.9339500666 -2.5334901810
H  2.4603600502 -2.3318803310 -1.9044800997
H  1.9797701836 1.2175300121 -2.5857801437
H  3.6017203331 1.8328201771 -2.8950603008
H  2.5481700897 2.6475403309 -1.7236101627
H  5.0637602806 0.8383001089 0.3117300272
H  4.4230504036 2.3161900043 0.0630200058
