13

C  1.8989502192 -0.4956400394 -1.2069201469
C  2.1736903191 0.2267700136 -0.1130400077
C  3.2947802544 1.1618700027 0.0401200019
O  3.7071504593 2.0552501678 -1.0067900419
C  2.9934003353 2.6443402767 0.0877300054
C  3.8062603474 3.5015501976 0.8951300979
C  4.4855303764 4.2236204147 1.5727901459
H  1.0492601395 -1.1696201563 -1.2357201576
H  2.5181901455 -0.4214400351 -2.0962800980
H  1.5232400894 0.1148800105 0.7522900105
H  4.0835304260 0.7849600911 0.6841200590
H  1.9816901684 2.9759202003 -0.1130500063
H  5.0929603577 4.8653202057 2.1677403450
