13

C  1.0000001192 0.0000000000 0.0000000000
C  2.1901600361 0.0000000000 0.0000000000
C  3.5961604118 0.0000000000 0.0000000000
C  4.3759303093 -1.0921101570 0.0050600003
C  5.8174805641 -0.6773700714 0.0071200002
C  5.7123904228 0.8206800222 0.0024100002
C  4.4207606316 1.1835300922 -0.0016900001
H  -0.0648800060 -0.0002500000 0.0000000000
H  4.0327405930 -2.1154301167 0.0086000003
H  6.3348402977 -1.0408301353 -0.8855200410
H  6.3303804398 -1.0353600979 0.9045600295
H  6.5562005043 1.4941301346 0.0026100001
H  4.0389304161 2.1928400993 -0.0053000003
