9

C  0.9898400903 -0.0020500000 0.0016800001
N  2.4270200729 0.0407400057 0.0038100001
C  3.1450603008 1.1973001957 -0.0703100115
O  4.3572602272 1.2388200760 0.0844000056
H  0.6701599956 -0.9558100700 -0.4240900278
H  0.5833300352 0.8274900913 -0.5828200579
H  0.6400900483 0.0756800100 1.0343301296
H  2.9597902298 -0.7782400250 0.2730600238
H  2.5379600525 2.0894601345 -0.2947600186
