15

C  1.0000001192 0.0000000000 0.0000000000
C  2.4440002441 0.0000000000 0.0000000000
C  3.6341602802 0.0000000000 0.0000000000
C  5.0781602859 0.0000000000 0.0000000000
C  5.5855503082 1.4328200817 0.0000000000
C  7.0295505524 1.4328200817 -0.0000000000
C  8.2197103500 1.4328200817 -0.0000000000
H  0.6060200334 1.0208901167 0.0116600012
H  0.6059300303 -0.5204900503 0.8782700896
H  0.6059300303 -0.5002900362 -0.8899300694
H  5.4537901878 -0.5379599929 -0.8794201016
H  5.4537901878 -0.5379599929 0.8794201016
H  5.2097702026 1.9707300663 0.8793900609
H  5.2097702026 1.9707300663 -0.8793900609
H  9.2846002579 1.4348900318 0.0000000000
