17

C  1.9120301008 -0.5285000801 -1.2219101191
O  1.7549601793 0.7134100795 -0.5482800603
C  3.0088102818 1.2488400936 -0.0724800006
C  3.6167001724 2.3290903568 -0.9258601069
C  2.9994502068 2.6836602688 0.3974100351
C  1.7253401279 3.4617202282 0.4576200545
O  3.9315102100 2.9974303246 1.4458200932
H  0.9330101013 -0.8516200781 -1.5841600895
H  2.3008301258 -1.2845700979 -0.5337800384
H  2.5851402283 -0.4153300226 -2.0767102242
H  3.6773703098 0.5799199939 0.4628300369
H  3.0948903561 2.6114799976 -1.8320600986
H  4.6960401535 2.3497500420 -1.0102400780
H  1.0772501230 3.2671601772 -0.4030200541
H  1.9387401342 4.5351605415 0.4760200381
H  1.1710401773 3.2083802223 1.3663899899
H  4.1838502884 3.9362204075 1.4185200930
