14

C  0.9790900946 0.0030300003 -0.0490100048
C  2.5024802685 0.0192900021 -0.0158300009
C  3.0896000862 -1.2225201130 0.6683800817
O  3.5297403336 -0.8455100656 1.9926601648
C  3.5591602325 0.5302200913 1.9455801249
C  3.0232901573 1.0924099684 0.8689400554
H  0.6170300841 -0.8286200762 -0.6631400585
H  0.5887500644 0.9330600500 -0.4772900343
H  0.5505300164 -0.1097400114 0.9537301064
H  2.8886702061 0.1107400060 -1.0363200903
H  3.9680902958 -1.5877401829 0.1217600033
H  2.3750402927 -2.0485301018 0.7509500384
H  3.9872503281 1.0065500736 2.8116004467
H  2.9425501823 2.1529302597 0.6862600446
