22

C  3.2589402199 -0.7605201006 1.6682201624
C  2.7569000721 -0.1068400070 0.3781400025
C  1.2560501099 -0.3730000257 0.2204500139
C  3.0934402943 1.4084901810 0.2602000237
C  2.4686603546 2.2593002319 1.3759601116
C  4.6208906174 1.6304101944 0.1832400113
N  4.9601802826 3.0129301548 -0.1422100067
H  4.3457303047 -0.6771400571 1.7647200823
H  3.0172603130 -1.8298702240 1.6750401258
H  2.7996301651 -0.3149500191 2.5566802025
H  3.2536602020 -0.6163500547 -0.4582100213
H  0.6821400523 -0.0053000003 1.0774500370
H  1.0648901463 -1.4490600824 0.1366700083
H  0.8657301068 0.1031300128 -0.6853700280
H  2.6627502441 1.7563401461 -0.6900400519
H  2.8972902298 2.0191001892 2.3533301353
H  1.3863500357 2.1161401272 1.4307202101
H  2.6351902485 3.3262302876 1.1951501369
H  5.0531401634 0.9768601060 -0.5827700496
H  5.0943002701 1.3780601025 1.1377301216
H  4.5597701073 3.2602403164 -1.0453701019
H  5.9702100754 3.0979101658 -0.2423200160
