22

C  0.7230400443 1.0873100758 -1.1858700514
C  2.0436000824 1.0063500404 -0.4354100227
C  2.8352801800 2.3086700439 -0.5585900545
N  4.0884304047 2.1957101822 0.1880200058
C  4.8839607239 3.4182801247 0.0734900087
C  6.1801905632 3.2647001743 0.8697800636
C  7.0386705399 4.5170001984 0.7782700658
H  0.1715800166 0.1472500116 -1.0850800276
H  0.8885200620 1.2715700865 -2.2521302700
H  0.0961100087 1.8929201365 -0.7906500697
H  2.6295101643 0.1691500098 -0.8343901038
H  1.8417301178 0.7867600918 0.6202200651
H  2.2370402813 3.1366803646 -0.1606100053
H  3.0395700932 2.5138001442 -1.6162101030
H  4.6264004707 1.4032500982 -0.1624600142
H  4.3173904419 4.2718305588 0.4639000297
H  5.1211805344 3.6195402145 -0.9780101180
H  6.7559003830 2.4098501205 0.4941400290
H  5.9521708488 3.0639202595 1.9238500595
H  7.3174505234 4.7260003090 -0.2594400346
H  7.9582705498 4.3892402649 1.3578701019
H  6.5060405731 5.3877501488 1.1735800505
