18

N  1.9583500624 -0.5170500278 1.5804800987
C  2.1039402485 -0.0531400070 0.1972800195
C  3.4017801285 0.7355900407 -0.0297300015
C  4.6625304222 -0.0968400091 0.0890300050
C  5.2564802170 -0.6216700673 -0.9979200363
C  5.2591404915 -0.2561100125 1.4627801180
O  4.5654001236 -1.2511401176 2.1944301128
H  1.1058400869 -1.0784600973 1.6467901468
H  1.7997401953 0.2886100411 2.1890101433
H  1.2469300032 0.5843900442 -0.0486400016
H  2.0687701702 -0.9174700975 -0.4753200412
H  3.4540402889 1.5877101421 0.6594600677
H  3.3542902470 1.1785601377 -1.0339000225
H  4.8396601677 -0.4992900491 -1.9923501015
H  6.1637206078 -1.2125000954 -0.9128300548
H  5.2170305252 0.6870000362 2.0169601440
H  6.3115005493 -0.5513600111 1.4125502110
H  3.6082103252 -1.1272701025 2.0062100887
