13

O  0.9370800853 0.0060600005 0.0252600014
C  2.3737001419 0.0194700006 0.0084600011
C  3.0503401756 1.0577300787 0.9351500273
C  4.1213703156 -0.0058600004 1.2382301092
C  3.0763702393 -1.0702099800 0.8520300984
H  0.6882500648 -0.7863900661 -0.4817700386
H  2.7477602959 0.0676300079 -1.0224200487
H  2.4455003738 1.3428201675 1.8037101030
H  3.4164702892 1.9630300999 0.4437700510
H  4.9826302528 0.0307600033 0.5614400506
H  4.4785704613 -0.0417999998 2.2701101303
H  3.4650900364 -1.9249601364 0.2924800217
H  2.4802501202 -1.4367800951 1.6955600977
