11

N  1.0180100203 -0.2825700045 -0.0256300010
C  2.3683300018 -0.0186400004 -0.0319200009
C  3.0535202026 1.1379899979 0.0000000000
C  2.3389999866 2.4327299595 0.0095500005
O  2.9030201435 3.5131902695 0.1339900047
C  4.4595203400 1.1379899979 0.0000000000
N  5.6105303764 1.1379899979 0.0000000000
H  0.7718000412 -1.2255001068 0.2785800099
H  0.4075500369 0.4215300381 0.3822500110
H  2.9339802265 -0.9529801011 -0.0818600059
H  1.2444701195 2.3826999664 -0.1013600081
