16

C  1.8723001480 -0.0079400009 -0.5324000120
C  0.9161500335 0.8118600249 0.2822000384
C  0.8756200671 -0.7297500372 0.3201200068
N  -0.5813300610 -1.0294500589 -0.0543800071
C  -0.9858600497 0.0078800004 -1.1504701376
C  -0.5609000325 1.0318700075 -0.0290500019
C  -1.3771901131 -0.0141700013 0.8350601196
H  1.7674601078 -0.0422000028 -1.6091901064
H  2.9107403755 -0.0295300018 -0.2165800035
H  1.2284500599 1.3204500675 1.1836800575
H  1.2304500341 -1.2318600416 1.2147101164
H  -2.0443601608 -0.0155500006 -1.4418500662
H  -0.3856600225 -0.0189800020 -2.0641901493
H  -0.9315100908 2.0542402267 -0.0918800011
H  -1.1385900974 -0.0575600043 1.9032402039
H  -2.4673302174 -0.0414800011 0.7131500244
