18

C  0.6581100821 -0.5348600745 0.1679300219
C  2.1536202431 -0.6049500108 -0.1576000154
C  2.4467802048 -1.8859601021 -0.9409300685
N  2.5161402225 0.6069700718 -0.9073200226
C  3.9660203457 0.7412800789 -1.0951801538
C  4.2400703430 2.0464701653 -1.8139201403
O  4.9306802750 2.9479501247 -1.3459500074
H  0.4249800444 0.3543800116 0.7641000152
H  0.3464200497 -1.4102901220 0.7481300235
H  0.0500500016 -0.5015200377 -0.7431901097
H  2.7012600899 -0.6307899952 0.7931000590
H  1.9780501127 -1.8650902510 -1.9313701391
H  2.0616900921 -2.7619903088 -0.4075700343
H  3.5216403008 -2.0387802124 -1.0750901699
H  2.1887800694 1.4201002121 -0.3790100217
H  4.3706202507 -0.0552500039 -1.7262301445
H  4.4940700531 0.7509400845 -0.1363800168
H  3.7909703255 2.1404199600 -2.8185300827
