20

C  3.0955801010 -1.1584000587 -0.5126000047
C  2.4580702782 0.0861500055 0.0966200083
N  2.0349402428 -0.1698700190 1.4694200754
C  3.4301004410 1.2318001986 0.1345999986
C  3.5464301109 2.1729700565 -1.0420600176
C  2.9268903732 2.6545102596 0.2440400124
C  3.6423902512 3.6338403225 1.1079101562
H  3.4175302982 -0.9619501233 -1.5415201187
H  2.3870401382 -1.9935101271 -0.5351900458
H  3.9803004265 -1.4776000977 0.0510400049
H  1.5748701096 0.3564200103 -0.4929400384
H  2.8364002705 -0.4634800255 2.0246403217
H  1.3841301203 -0.9528000355 1.4803800583
H  4.3478803635 0.9796900749 0.6568700671
H  2.8898100853 2.0283501148 -1.8929500580
H  4.5355005264 2.5299000740 -1.3072100878
H  1.8537300825 2.8115301132 0.2649800181
H  4.7269401550 3.4843101501 1.0899500847
H  3.3028101921 3.5395202637 2.1438400745
H  3.4339001179 4.6540102959 0.7718000412
