13

C  0.9695600867 -0.1273000091 0.0219500009
N  2.4241201878 -0.0829900056 0.0256800018
C  3.0001201630 1.0628800392 -0.0181600004
S  2.2654402256 2.6699702740 -0.0610100031
N  3.7376403809 3.4562501907 -0.2168800086
C  4.7519903183 2.5391302109 -0.0901000053
C  4.4629802704 1.2372601032 -0.0159500018
H  0.6483200788 -1.1740100384 0.0223500021
H  0.5495700240 0.3370700181 -0.8765900731
H  0.5493900776 0.3404600322 0.9185200930
H  3.8909702301 4.3473601341 0.2534400225
H  5.7605404854 2.9379100800 -0.0615300052
H  5.1472001076 0.4114500284 0.0710000098
