13

C  1.1759901047 -0.3918000460 0.5724600554
C  2.3461699486 -0.3247400522 0.3092400134
C  3.7774202824 -0.2445600331 -0.0083100004
N  4.2570400238 1.1050900221 0.2774800062
C  5.6843504906 1.2661300898 -0.0383900031
C  6.5985803604 0.5248300433 0.8554400802
N  7.3022003174 -0.0685700029 1.5633301735
H  0.1375600100 -0.4469200373 0.8052900434
H  3.9246802330 -0.4820800424 -1.0680701733
H  4.3176403046 -0.9916800857 0.5836600661
H  4.1015601158 1.3062901497 1.2655501366
H  5.9189405441 2.3341701031 0.0368900038
H  5.8703303337 0.9888100624 -1.0826101303
