9

N  0.9059200287 0.0351800025 -0.0044700005
C  2.0662701130 0.0232600011 -0.0023800002
C  3.4832901955 0.0073100007 0.0001700000
C  4.3156104088 1.0944601297 0.0019000001
O  5.6060204506 0.6697800756 0.0041300002
N  5.6320004463 -0.7189300656 0.0038900003
C  4.3498306274 -1.0960100889 0.0015000001
H  4.1757502556 2.1656603813 0.0018700002
H  4.1168603897 -2.1520102024 0.0008500001
