12

O  1.7701700926 -0.5509900451 -0.7523000836
C  2.1682901382 0.3955900073 -0.0806100070
C  1.6763101816 0.5215900540 1.2809101343
C  1.2631701231 0.6164700389 2.4058802128
N  3.0656301975 1.3410700560 -0.5756500363
C  4.1153802872 1.9160300493 0.2128000259
C  2.9786002636 2.7396101952 -0.2744400203
H  0.8887600303 0.6877800822 3.4006202221
H  5.0620102882 1.9632401466 -0.3086100221
H  4.1571102142 1.6216601133 1.2520600557
H  2.2003600597 3.0392103195 0.4133400321
H  3.1186201572 3.3710203171 -1.1415600777
