15

C  1.7400300503 -0.9558300376 0.4440900385
C  3.1904704571 -0.5094000697 0.3434500396
N  3.2536301613 0.8532900810 -0.1863600165
C  4.6465406418 1.3086800575 -0.2731200159
C  4.6661701202 2.7011203766 -0.8661200404
O  5.1367406845 3.6781601906 -0.2890100181
H  1.6862201691 -1.9759100676 0.8380000591
H  1.2542401552 -0.9474201202 -0.5375800133
H  1.1692501307 -0.3052200377 1.1154000759
H  3.7295901775 -1.1982100010 -0.3167300224
H  3.6506004333 -0.5575600266 1.3371801376
H  2.7425801754 1.4765501022 0.4430700243
H  5.2335004807 0.6624100208 -0.9341300726
H  5.1171202660 1.3379300833 0.7154000998
H  4.2466602325 2.7915802002 -1.8831201792
