19

C  1.1919500828 -0.5335800648 0.7505600452
C  2.6955101490 -0.6730200648 0.5657400489
C  3.3132400513 0.6278401017 0.0400500037
N  4.7708606720 0.4868900478 -0.1793200225
C  5.2341704369 1.6640501022 -0.9370200634
N  5.4848904610 0.2325700074 0.9555301070
C  6.4897003174 -0.5522200465 0.7469700575
H  0.7663100958 -1.4715800285 1.1216701269
H  0.7000100613 -0.2892799973 -0.1966300160
H  0.9574500918 0.2548900247 1.4730601311
H  2.8957800865 -1.4921801090 -0.1361000091
H  3.1431202888 -0.9515100718 1.5271900892
H  3.1136002541 1.4478000402 0.7415500283
H  2.8194901943 0.8756300807 -0.9078601003
H  4.7025504112 1.7513601780 -1.8903100491
H  6.2983102798 1.5670402050 -1.1773800850
H  5.0972504616 2.5884902477 -0.3653200269
H  7.1441702843 -0.8302900791 1.5878901482
H  6.7416005135 -0.9749600291 -0.2409500182
