13

C  0.4265000522 1.4465000629 0.2021600157
C  1.3382000923 0.2852400243 -0.1288000047
O  0.9008600116 -0.8345600367 0.6407900453
N  -0.3347300291 -1.3431701660 0.1898500174
C  -1.2263100147 -0.4377500117 -0.0672100037
C  -1.0253001451 1.0499000549 0.0118200006
H  0.6750700474 2.3243801594 -0.4017800391
H  0.5734300613 1.7275000811 1.2517400980
H  2.3709003925 0.5128700733 0.1583300084
H  1.3306900263 0.0344400033 -1.1966600418
H  -2.2293601036 -0.7806400657 -0.3751000166
H  -1.4063200951 1.4715000391 -0.9250800610
H  -1.6537201405 1.4462901354 0.8153100610
