15

C  0.9516900778 -0.0942800045 0.0243800003
N  2.3999001980 0.0098200012 0.1119000092
C  3.1368703842 -1.2406899929 0.0350800045
C  3.1070203781 1.2002201080 -0.0120900003
C  2.3054401875 2.4774901867 -0.0419200063
O  4.3344006538 1.2437201738 -0.0912100077
H  0.4526100457 0.8353900909 0.3018300235
H  0.6060400605 -0.8840901256 0.6978300810
H  0.6843600273 -0.3482100070 -1.0056501627
H  2.7279100418 -1.9443701506 0.7662000656
H  4.2011103630 -1.1016601324 0.2430500090
H  3.0229504108 -1.6512100697 -0.9725900888
H  1.6164301634 2.4746201038 -0.8907400370
H  2.9844202995 3.3274903297 -0.1601000130
H  1.7624801397 2.6038601398 0.8981400728
