22

C  3.2832601070 -1.1172701120 -0.6820100546
C  2.6641702652 -0.1339600086 0.3030800223
C  3.2520601749 1.2887901068 0.2092100084
N  2.5073602200 2.1655201912 1.1214001179
C  4.7824907303 1.3744601011 0.4634500444
C  5.3065700531 2.8010601997 0.2462100238
C  5.2159404755 0.8753200769 1.8461800814
H  2.7488801479 -2.0716102123 -0.6421400905
H  4.3314704895 -1.3173199892 -0.4466300309
H  3.2207202911 -0.7374401093 -1.7061101198
H  2.7637202740 -0.5327100158 1.3196301460
H  1.5865000486 -0.0893500075 0.0968200043
H  3.0665502548 1.6572802067 -0.8080800772
H  2.5837101936 1.8168301582 2.0757701397
H  1.5150101185 2.1332199574 0.8918700218
H  5.2853407860 0.7471500635 -0.2832100093
H  4.9154405594 3.4975702763 0.9947000742
H  5.0272006989 3.1709201336 -0.7459400296
H  6.3998703957 2.8227703571 0.3116900325
H  4.7792201042 1.4746401310 2.6510903835
H  6.3054103851 0.9318300486 1.9481101036
H  4.9318003654 -0.1689500213 2.0016901493
