15

C  3.2095403671 -1.4359501600 -0.1517400146
C  2.6418602467 -0.0348200016 -0.2029400170
N  1.3700401783 0.1391099989 -0.4519500434
N  3.4648501873 1.0647901297 0.0131200012
O  2.7577803135 2.2766501904 -0.0748500004
C  4.8132605553 1.1188501120 0.2880300283
C  5.5732803345 2.2005701065 0.4905400574
H  3.9906902313 -1.5416401625 -0.9099500775
H  2.4361302853 -2.1847400665 -0.3423200250
H  3.6369903088 -1.6210701466 0.8378700614
H  0.9047600627 -0.7652400732 -0.5868900418
H  1.8462401628 1.9618501663 -0.2732100189
H  5.2832603455 0.1416900158 0.3388100266
H  5.1474003792 3.1983501911 0.4496200383
H  6.6329107285 2.1098001003 0.7005500793
