14

C  0.9543401003 -0.0125000002 0.0485400036
C  2.4692599773 0.0183200017 0.0293600019
C  3.1507000923 1.0897200108 0.9338501096
C  4.1743202209 -0.0128500005 1.2943401337
O  5.3026700020 -0.0126500009 1.7338200808
C  3.1950201988 -1.1127001047 0.8198100924
H  0.5794100761 -0.8577900529 -0.5367100239
H  0.5453200340 0.9050100446 -0.3872200251
H  0.5649600625 -0.1061900109 1.0677801371
H  2.8313300610 0.0804800019 -1.0069700480
H  2.5669102669 1.4243500233 1.7965601683
H  3.5679104328 1.9487700462 0.4046800435
H  3.6452002525 -1.8961000443 0.2068200260
H  2.6272001266 -1.5571000576 1.6433600187
