14

C  1.1268001795 0.0073300009 -0.1686800122
N  2.5683200359 0.0030600003 -0.2439700067
C  3.2945103645 -1.1950801611 0.1261200011
C  4.6694407463 -0.6221100688 0.5074900389
N  4.5240101814 0.8615000844 0.5801400542
C  3.3223402500 1.0703701973 0.1361700147
H  0.7152300477 -0.9413400292 -0.5274200439
H  0.7137500644 0.8091900945 -0.7884700894
H  0.7934700847 0.1593300104 0.8636300564
H  3.3673403263 -1.8984200954 -0.7092700601
H  2.8337101936 -1.6985301971 0.9824900627
H  5.4255404472 -0.8745700717 -0.2437900156
H  4.9994001389 -1.0125100613 1.4760600328
H  2.8521201611 2.0641200542 0.0653200075
