17

N  1.0754101276 -0.0276900008 0.5424300432
C  2.4597802162 -0.0298200008 0.0449200049
C  2.8020901680 -1.3671400547 -0.6105600595
C  2.5853700638 -1.1204700470 -2.0707800388
C  3.6243302822 -0.4096900523 -2.8883302212
N  2.4722201824 0.3224900365 -2.3727200031
C  2.6956300735 1.0021300316 -1.0803300142
H  0.8290900588 0.9003700614 0.8829100728
H  0.9861700535 -0.6694900393 1.3278501034
H  3.1217603683 0.1680100262 0.8946000934
H  2.1888501644 -2.1962103844 -0.2401400208
H  3.8507504463 -1.6269900799 -0.4240000546
H  1.8497500420 -1.7568200827 -2.5413801670
H  4.5988502502 -0.2066300213 -2.4623401165
H  3.6271903515 -0.5800400376 -3.9587502480
H  3.7164502144 1.4010601044 -1.0204900503
H  2.0201401711 1.8606601954 -0.9880200624
