19

C  0.5493800044 1.1687300205 0.4496900141
C  1.7326201200 0.4978600144 -0.2298100144
C  3.0478801727 1.2209401131 0.0071800007
C  3.7014501095 0.9548000693 1.3453000784
O  3.0446703434 1.6954001188 2.3625302315
C  3.9691102505 1.3765801191 -1.1903800964
C  3.2568402290 2.5773701668 -0.6460700631
H  -0.3738800287 0.6265400648 0.2191600204
H  0.4282800257 2.2020900249 0.1078000069
H  0.6625300050 1.1844900846 1.5374901295
H  1.5211400986 0.4404600263 -1.3042800426
H  1.8160301447 -0.5371500254 0.1208300069
H  4.7579808235 1.2450301647 1.3483800888
H  3.6506202221 -0.1082400084 1.6007801294
H  3.0303702354 2.6216201782 2.0698001385
H  3.6503202915 0.9936200976 -2.1544802189
H  5.0429201126 1.3140400648 -1.0419501066
H  3.8514902592 3.3227901459 -0.1304600090
H  2.4526500702 2.9981200695 -1.2391800880
