14

C  2.3990001678 -0.4090500474 -1.7101901770
N  2.5779602528 0.3525300324 -0.4908200502
O  1.7447701693 -0.1487500072 0.5365999937
C  3.8456904888 0.7801400423 -0.1336600035
O  4.7759499550 0.8745600581 -0.9325500727
C  4.0113701820 1.1957300901 1.2900900841
C  5.1715202332 1.7076501846 1.7241101265
H  2.9524803162 0.0577200055 -2.5300600529
H  1.3344900608 -0.4446400106 -1.9583101273
H  2.7771902084 -1.4243601561 -1.5562400818
H  1.0430600643 0.5287300348 0.5565600395
H  3.1791803837 1.0746101141 1.9698500633
H  6.0208907127 1.8353000879 1.0580000877
H  5.2940702438 2.0088300705 2.7586801052
