19

C  0.9046900272 -0.0176500026 0.1953200251
C  2.4007701874 0.0058700005 -0.0253700018
N  2.7472300529 0.0446400009 -1.4527900219
C  3.2351102829 1.0754500628 0.7207100987
C  4.1469702721 -0.0274900012 1.2878900766
N  5.4331703186 -0.0048800004 0.5896500349
C  3.2385401726 -1.1018700600 0.6592600942
H  0.6618800163 -0.0512100011 1.2622300386
H  0.4489100277 -0.8951501250 -0.2749800086
H  0.4287500381 0.8756300807 -0.2224700302
H  3.7330303192 0.1992100179 -1.6496701241
H  2.2577903271 0.7777400613 -1.9653501511
H  2.6697301865 1.5902200937 1.5100702047
H  3.7103102207 1.8549201488 0.1116900146
H  4.2267904282 -0.0497700013 2.3778202534
H  5.3726601601 -0.1043700054 -0.4215700328
H  6.0614004135 -0.7502200603 0.8896700740
H  3.7155702114 -1.8428201675 0.0066500008
H  2.6785502434 -1.6608601809 1.4201101065
