17

C  0.9007000327 0.0279700030 0.0862000063
C  2.4227001667 0.0010000000 0.1071600094
C  3.0272300243 1.1469200850 -0.6623400450
C  3.7956802845 0.6751300693 -1.6569001675
C  3.7682301998 -0.7704800367 -1.6399301291
C  4.5113201141 -1.6088601351 -2.6141202450
C  2.9825701714 -1.1856000423 -0.6344200373
H  0.5216500163 0.9275300503 0.5837300420
H  0.4903400540 -0.8430400491 0.6092400551
H  0.5038800240 0.0199700017 -0.9361100793
H  2.7882001400 0.0064500007 1.1401200294
H  2.8680901527 2.1899302006 -0.4334500432
H  4.3530106544 1.2697501183 -2.3645701408
H  5.0049200058 -0.9985900521 -3.3773400784
H  3.8321905136 -2.2957901955 -3.1281402111
H  5.2827601433 -2.1951003075 -2.1052701473
H  2.7800302505 -2.2150402069 -0.3777600229
