14

C  0.9045900702 0.0521600023 -0.0102300011
C  2.4077000618 0.0075900005 -0.0058100005
C  3.0175402164 -1.3695101738 -0.0090200007
C  3.1390202045 1.1379899979 0.0000000000
C  4.5450205803 1.1379899979 0.0000000000
C  5.7351803780 1.1379899979 0.0000000000
H  0.5200300217 1.0771201849 -0.0088800006
H  0.5090300441 -0.4536300302 0.8762800694
H  0.5144500732 -0.4494300187 -0.9015500546
H  2.2455801964 -2.1450603008 0.0270400010
H  3.6614403725 -1.5132901669 0.8643000722
H  3.6014904976 -1.5324701071 -0.9200500846
H  2.6464602947 2.1064901352 0.0023200002
H  6.8001308441 1.1361700296 -0.0000000000
