17

C  2.3545601368 0.1234800071 -0.8316900730
O  3.6803002357 0.6234500408 -0.7082400322
C  3.6876502037 1.9765001535 -0.2480300218
C  5.1306605339 2.4450201988 -0.1803900152
C  5.2360305786 3.8830401897 0.2708700299
C  6.6184606552 4.4800806046 0.2779100239
O  4.2552604675 4.5485405922 0.6019500494
H  2.4086802006 -0.9140101075 -1.1718600988
H  1.7948001623 0.7046300769 -1.5706901550
H  1.8429701328 0.1488700062 0.1350800097
H  3.2194502354 2.0282101631 0.7424000502
H  3.1132500172 2.6029901505 -0.9411200881
H  5.5979404449 2.3491001129 -1.1673400402
H  5.6969904900 1.8141901493 0.5138500333
H  7.2991504669 3.8285400867 0.8319300413
H  6.5962405205 5.4572401047 0.7689100504
H  6.9677405357 4.6026701927 -0.7500100136
