19

C  0.7094700336 -0.1142200083 -0.1066900119
C  2.2012901306 -0.3221900165 -0.3647600114
C  2.4432003498 -0.7735700607 -1.8046300411
C  2.9990701675 0.9195501208 -0.0124900006
C  2.8015902042 2.1690001488 -0.8187800646
C  3.5640201569 1.0451101065 1.3879101276
O  4.3801903725 0.6459700465 0.2786300182
H  0.5335600376 0.2103200108 0.9247400761
H  0.1551600099 -1.0450601578 -0.2672300339
H  0.2858000100 0.6459900141 -0.7717500925
H  2.5299901962 -1.1427601576 0.2871100307
H  2.0597002506 -0.0462600030 -2.5280902386
H  1.9443402290 -1.7292101383 -1.9983102083
H  3.5130503178 -0.9061300159 -1.9984800816
H  3.4515402317 2.9790802002 -0.4707000256
H  1.7691501379 2.5212903023 -0.7412700057
H  3.0327801704 1.9979301691 -1.8739300966
H  3.3184702396 0.2904900312 2.1250000000
H  3.7308902740 2.0317702293 1.8021501303
