10

O  2.7298803329 -1.1637201309 0.1433200091
C  2.1867201328 -0.0688900054 0.0274700020
C  2.8833501339 1.2116700411 0.0103600007
C  2.2434902191 2.4322102070 -0.1218400076
S  3.3867502213 3.7115902901 -0.0991800055
C  4.6417903900 2.5601801872 0.0834400058
N  4.2676105499 1.3015100956 0.1278600097
H  1.0907500982 -0.0034400003 -0.0739800036
H  1.1875001192 2.6361000538 -0.2282800227
H  5.6804008484 2.8564202785 0.1574700177
