11

O  0.9812700748 -0.0433000065 0.0000100000
C  2.2034699917 -0.0274500027 0.0000000000
C  2.9305901527 1.2176301479 0.0000000000
C  3.5256702900 2.2483401299 0.0000000000
C  4.2476701736 3.4988803864 0.0000000000
C  3.6444401741 4.8108506203 0.0000000000
C  3.1472604275 5.8921804428 0.0000000000
H  2.8198702335 -0.9399400353 -0.0000000000
H  4.9262604713 3.4673602581 -0.8648800254
H  4.9262604713 3.4673602581 0.8648800254
H  2.6961302757 6.8579106331 0.0000000000
