20

C  1.0504200459 -0.0850900039 0.3927800357
N  2.4973301888 0.0770300031 0.4329600334
C  2.9297802448 1.4523601532 0.1569600254
C  2.4583501816 2.4462502003 1.2215900421
C  4.4370002747 1.4509000778 0.1185800061
C  5.1745901108 1.8450300694 -0.9324000478
C  6.6684007645 1.8426501751 -0.9467800856
H  0.8048700094 -1.1485401392 0.4796600342
H  0.6256500483 0.2792600095 -0.5480500460
H  0.5639000535 0.4216100276 1.2313901186
H  2.9093201160 -0.5274200439 -0.2786799967
H  2.5394501686 1.7687400579 -0.8191100359
H  2.7428801060 2.1243703365 2.2302203178
H  1.3706600666 2.5700702667 1.1999500990
H  2.8972301483 3.4366102219 1.0527100563
H  4.9354705811 1.1049600840 1.0230500698
H  4.6841607094 2.1934602261 -1.8390800953
H  7.0912404060 1.4835101366 -0.0031300001
H  7.0406904221 2.8565101624 -1.1228901148
H  7.0328106880 1.1971300840 -1.7516001463
