14

C  1.0477801561 -0.1177300066 0.3402200341
C  2.4985501766 -0.0628800020 -0.0755200014
C  3.0761902332 -1.1769601107 -0.5638200045
C  3.2181601524 1.2170801163 0.0512800030
C  2.7477102280 2.2577800751 0.7645000219
C  4.4712505341 1.3970900774 -0.6290500760
N  5.4845705032 1.5544401407 -1.1748001575
H  0.4650200307 0.6505400538 -0.1801700145
H  0.9460900426 0.0278900024 1.4209300280
H  0.5871700644 -1.0830000639 0.1005500108
H  2.5221202374 -2.1076800823 -0.6538900733
H  4.1135702133 -1.2204400301 -0.8839900494
H  1.8140201569 2.2255301476 1.3140600920
H  3.3018403053 3.1918001175 0.8291100264
