17

C  0.9224300981 -0.0407600030 -0.0021700000
C  2.4067101479 0.0233400017 0.0019200002
C  3.2274003029 1.0923900604 0.0053000003
C  2.9111800194 2.5453801155 0.0051600002
C  4.6006302834 0.6302000880 0.0089200009
C  4.6255202293 -0.7089000940 0.0078000003
C  3.2248604298 -1.2425701618 0.0032200003
H  0.4620300531 0.9507400990 0.0019300001
H  0.5645300746 -0.5779400468 0.8817800879
H  0.5690200329 -0.5689400434 -0.8933100700
H  1.8344302177 2.7351603508 -0.0024000001
H  3.3386404514 3.0303001404 -0.8787300587
H  3.3260900974 3.0276503563 0.8964400887
H  5.4619808197 1.2817000151 0.0120100006
H  5.5141201019 -1.3214900494 0.0098500010
H  3.0368201733 -1.8402502537 -0.8937800527
H  3.0316002369 -1.8417800665 0.8980800509
