16

C  2.2401101589 -0.2551300228 0.4923300147
C  2.4627802372 -0.2946600318 -1.0178500414
C  1.3189401627 -0.9992800355 -1.7249501944
O  0.3295400143 -1.4622302055 -1.1643800735
C  2.6388502121 1.0990201235 -1.5611701012
C  4.0226302147 1.6614701748 -1.7757501602
N  3.1834301949 1.2758800983 -2.9059703350
H  3.0798902512 0.2324100137 0.9986800551
H  2.1359701157 -1.2662900686 0.9005800486
H  1.3303700686 0.3010500371 0.7469100952
H  3.3588902950 -0.8971700668 -1.2159600258
H  1.4406101704 -1.1060500145 -2.8175301552
H  1.8395001888 1.7747501135 -1.2764101028
H  4.8852801323 1.0313900709 -1.5961101055
H  4.1828904152 2.7222301960 -1.6286901236
H  2.7883803844 2.1045401096 -3.3585603237
