11

C  0.9593601227 0.0303700026 -0.0000800000
C  2.2957303524 0.0624500029 -0.0012500001
O  2.9881601334 1.2705800533 -0.0026500002
C  4.3406004906 1.1089501381 -0.0037000002
N  5.0246801376 0.0112000015 -0.0035400002
N  4.3604202271 -1.2246401310 -0.0021500001
C  3.0698602200 -1.1886401176 -0.0010800001
H  0.3885500431 0.9536400437 -0.0002100000
H  0.4015800357 -0.8999400139 0.0010200001
H  4.8329105377 2.0930001736 -0.0047700005
H  2.5024502277 -2.1331303120 0.0000400000
