15

N  1.0388301611 0.0325100012 0.0796100050
C  2.4890303612 0.0384100042 -0.0659500062
C  3.1004002094 1.0596901178 0.9135800600
C  4.1591606140 -0.0152200004 1.2517801523
C  3.1163003445 -1.0794500113 0.8230000138
O  3.6203300953 -2.2413401604 0.1339800060
H  0.6010900736 -0.8122300506 -0.2883800268
H  0.5750300288 0.8143000603 -0.3794600368
H  2.8627002239 0.0832000077 -1.0935400724
H  2.4764101505 1.3322501183 1.7742801905
H  3.4918601513 1.9746800661 0.4599800408
H  5.0513806343 0.0217700023 0.6167400479
H  4.4690403938 -0.0511400029 2.2992203236
H  2.4867701530 -1.3949400187 1.6664901972
H  4.1920905113 -1.8955801725 -0.5721900463
