16

C  0.9903900623 -0.1197800115 -0.0790600106
C  2.5010201931 -0.0128900018 0.0730700120
C  3.0273902416 1.4328200817 0.0000000000
C  2.5054101944 2.2973401546 1.1496000290
C  4.4713902473 1.4328200817 0.0000000000
C  5.6615505219 1.4328200817 0.0000000000
H  0.6918100715 -1.1722800732 -0.1225900128
H  0.6517100334 0.3659100235 -1.0001001358
H  0.4670500457 0.3356700242 0.7670300603
H  2.9660000801 -0.6083500385 -0.7233000398
H  2.7999501228 -0.4790200591 1.0204000473
H  2.6786201000 1.8794500828 -0.9401000738
H  2.7640802860 1.8664702177 2.1237602234
H  1.4176501036 2.4080801010 1.1044101715
H  2.9364500046 3.3047802448 1.1098500490
H  6.7272305489 1.4327201843 0.0001600000
