17

C  1.7047201395 -0.1568900198 1.3100401163
C  2.3280501366 0.1677700132 -0.0381100029
C  3.3459203243 1.2629101276 0.0775600076
C  3.5437800884 2.2325203419 -1.0564301014
C  2.9030101299 2.7022402287 0.2282700241
C  3.6442403793 3.6173801422 1.1276900768
O  3.2111403942 4.7332601547 1.3821700811
H  1.0026601553 -0.9902100563 1.2145601511
H  1.1586800814 0.7056000233 1.7054201365
H  2.4702501297 -0.4325800240 2.0417602062
H  1.5354300737 0.4411000311 -0.7451500893
H  2.8175203800 -0.7286300659 -0.4374200404
H  4.2304306030 0.9324700832 0.6120100617
H  2.9085001945 2.1543703079 -1.9320001602
H  4.5541300774 2.5563302040 -1.2806401253
H  1.8356301785 2.8996300697 0.1956800222
H  4.5950503349 3.2493703365 1.5491200686
