17

C  0.9485600591 -0.7416900396 -0.7262900472
N  2.1274001598 -0.4822600484 0.0862600058
C  2.8425900936 -1.6530601978 0.5639300346
C  2.7953202724 0.7400200367 0.0934800059
O  3.9118204117 0.8793200850 0.6037600040
C  2.1161901951 1.9469101429 -0.5690000653
N  2.1686501503 1.8327101469 -2.0349800587
H  0.2958200276 0.1303000152 -0.7871800661
H  0.3754100502 -1.5616600513 -0.2827700078
H  1.2713000774 -1.0250301361 -1.7324701548
H  2.1413903236 -2.3226702213 1.0700701475
H  3.6364302635 -1.3852001429 1.2661800385
H  3.2869400978 -2.1656100750 -0.2946500182
H  2.6527802944 2.8502104282 -0.2578800023
H  1.0869001150 2.0477101803 -0.2143500149
H  3.1475701332 1.7188200951 -2.3057703972
H  1.8719500303 2.7191402912 -2.4403700829
