16

C  0.5068100095 0.1913500130 0.0092000011
C  1.9527001381 -0.0885300040 0.2585900128
C  2.9441304207 0.7647000551 -0.0424200036
C  4.4000802040 0.4873800278 0.1996200085
C  4.9948201180 1.4961500168 1.1386101246
C  5.9966006279 2.3272202015 0.8211600184
H  0.0942300037 -0.5580500364 -0.6735400558
H  0.3453400135 1.1806201935 -0.4311800301
H  -0.0499800034 0.1425100118 0.9505800605
H  2.1844501495 -1.0492700338 0.7128000259
H  2.7095100880 1.7232000828 -0.5027200580
H  4.9212508202 0.4959200323 -0.7653400302
H  4.5433602333 -0.5124600530 0.6266500354
H  4.5770006180 1.5334300995 2.1425502300
H  6.4494504929 2.3253602982 -0.1655000150
H  6.3842806816 3.0322401524 1.5499402285
