19

C  1.8783900738 2.2123301029 1.9330501556
C  3.3009002209 1.8163200617 1.6873100996
N  4.0850205421 2.5763502121 0.9927901030
N  5.3419504166 2.0848400593 0.8666600585
C  6.3001003265 2.9378004074 0.1467500180
C  6.5377106667 4.2480101585 0.8973900676
C  7.6172003746 2.1793100834 -0.0181100015
H  1.2208501101 1.4472301006 1.5138400793
H  1.6566702127 3.1793701649 1.4764502048
H  1.7096201181 2.2671899796 3.0111002922
H  3.6336603165 0.8581900597 2.1281001568
H  5.3346805573 1.1586500406 0.4322100282
H  5.9034800529 3.1615903378 -0.8513400555
H  6.9211006165 4.0674204826 1.9081301689
H  5.6146101952 4.8309307098 0.9844400883
H  7.2680807114 4.8686504364 0.3672900200
H  8.0573806763 1.9223600626 0.9521400928
H  8.3459110260 2.7853403091 -0.5675700307
H  7.4699606895 1.2501301765 -0.5798300505
