18

C  1.8650602102 2.0940201283 -2.0329201221
O  3.2148203850 2.0067601204 -1.5991702080
C  3.3022203445 1.5276600122 -0.2528800368
C  4.7396206856 1.4257100821 0.1682400256
N  5.8086905479 1.4130700827 -0.8384200931
C  5.6793208122 2.5951302052 0.0099000009
C  6.7243905067 2.8651101589 1.0358800888
H  1.8582302332 2.4327900410 -3.0721302032
H  1.3155201674 2.8190002441 -1.4248100519
H  1.3792700768 1.1143000126 -1.9821101427
H  2.8374502659 0.5367600322 -0.1912000179
H  2.7714102268 2.2122702599 0.4187100530
H  4.8756504059 0.7675800323 1.0186901093
H  5.3790807724 1.5877401829 -1.7557001114
H  5.3219404221 3.4996201992 -0.4692900181
H  7.1432104111 1.9439501762 1.4556500912
H  6.2997608185 3.4500904083 1.8582201004
H  7.5447707176 3.4428501129 0.5975400805
