15

C  1.6755601168 -0.1211600080 0.0124500003
C  0.7160300612 -1.2119500637 0.4885000288
O  -0.3563500345 -1.2962200642 -0.4477000535
N  -1.4990401268 -0.6037999988 -0.0124900006
C  -1.3391101360 0.6665200591 0.2316900194
C  -0.0975700095 1.5381401777 0.2567400038
N  1.0213900805 1.0642400980 -0.5506600738
H  2.3073902130 -0.5367100239 -0.7813500166
H  2.3449602127 0.1607400030 0.8334000707
H  1.2287001610 -2.1794502735 0.5078600645
H  0.3461100161 -1.0185900927 1.5036200285
H  -2.2570602894 1.1884801388 0.5542800426
H  0.1957500130 1.6981601715 1.3014200926
H  -0.4084800184 2.5159201622 -0.1316500008
H  1.7112902403 1.8049201965 -0.6640800238
