14

N  0.9195501208 -0.3097900450 0.0628100038
C  2.2759401798 -0.0964700058 -0.0131400004
C  2.9249300957 1.0770000219 0.0626700073
C  2.3456201553 2.4518702030 0.2246100157
O  0.9213700294 2.4503602982 0.1199300140
C  4.4067506790 1.0252201557 -0.0348200016
O  5.1056404114 2.0303800106 0.0213700011
H  0.6644300222 -1.1996600628 0.4907600582
H  0.4253500402 0.4719900191 0.5053800344
H  2.8146102428 -1.0336101055 -0.1479200125
H  2.7287302017 3.1320900917 -0.5433300138
H  2.6055800915 2.8584601879 1.2067500353
H  0.7246400714 2.1079101562 -0.7723300457
H  4.8527307510 0.0239800029 -0.1612700075
