15

C  1.0960400105 0.1083400026 0.1732400209
C  2.5646102428 0.0235100016 -0.0858300030
C  3.2018201351 -1.1095399857 -0.4259100258
S  3.4966502190 1.5021600723 0.0667800009
C  4.1160101891 1.3739200830 1.7260501385
O  4.6411805153 1.4547700882 -0.8250800967
O  2.5934700966 2.6374001503 0.0364700034
H  0.6148700714 0.7697900534 -0.5542500019
H  0.9055001140 0.4969900548 1.1788601875
H  0.6133200526 -0.8720700145 0.1003200114
H  2.6646902561 -2.0460700989 -0.5401099920
H  4.2706904411 -1.1325200796 -0.6251900196
H  3.2743701935 1.3163701296 2.4189701080
H  4.7068004608 2.2683701515 1.9361301661
H  4.7479505539 0.4876200259 1.8073101044
