17

C  2.8757703304 -0.9396900535 0.7724500299
O  4.0584001541 -0.4938600361 0.1235800087
C  4.2408905029 0.9130001068 0.2804300189
C  5.5532002449 1.2995500565 -0.3359200358
C  6.7957406044 0.8220300674 0.3437700272
C  5.6071004868 1.6690201759 -1.7999202013
O  5.6146702766 2.6684901714 -0.7683000565
H  2.7710301876 -2.0142500401 0.5991000533
H  1.9967101812 -0.4320100248 0.3629600406
H  2.9430301189 -0.7657901049 1.8509401083
H  4.2410006523 1.1734901667 1.3454601765
H  3.4087002277 1.4385801554 -0.2036700100
H  7.6920604706 1.3086900711 -0.0567600019
H  6.9115705490 -0.2574500144 0.2104400098
H  6.7549304962 1.0332500935 1.4180301428
H  4.7093400955 1.5654200315 -2.3962900639
H  6.5279402733 1.5036600828 -2.3460700512
