13

O  0.9157100320 0.1325700134 -0.1256000102
C  2.3615603447 0.0529600047 -0.0688600019
C  3.0474202633 1.0402500629 0.9079400897
C  4.1482205391 0.0250700004 1.2787500620
S  3.0665802956 -1.3106701374 0.8775700331
O  2.2119002342 -1.6885201931 1.9847801924
O  3.6959903240 -2.2808101177 0.0071900007
H  0.6139200330 -0.7937100530 -0.1806900203
H  2.7840602398 0.0651100054 -1.0799100399
H  2.4143803120 1.3273501396 1.7569701672
H  3.4181103706 1.9595901966 0.4444000125
H  5.0284404755 0.0530900061 0.6283900142
H  4.4672107697 0.0442000031 2.3237102032
