16

C  0.9472301006 0.0259100031 0.1355100125
C  2.4617400169 0.0722200051 -0.0121500008
C  3.1826803684 1.0920900106 0.9093300700
C  4.1584200859 -0.0566600040 1.2117800713
N  3.1071901321 -1.0071800947 0.8016100526
C  2.9215400219 0.0347199999 -1.5241101980
O  3.0852200985 -0.9643700719 -2.2257001400
H  0.6385300159 -0.0064900005 1.1865900755
H  0.5286600590 -0.8555800319 -0.3628100455
H  0.4907900393 0.9135600924 -0.3155000210
H  2.6010401249 1.4229501486 1.7781101465
H  3.6221501827 1.9672801495 0.4231200516
H  5.0453104973 -0.0735600069 0.5678200126
H  4.4752001762 -0.1445800066 2.2543101311
H  3.4368102551 -1.7966301441 0.2401400208
H  3.1229202747 1.0313800573 -1.9526902437
