17

C  3.4069302082 -0.0552800037 1.6465001106
O  4.6137304306 0.2194400132 0.9483300447
C  4.5696802139 1.5059301853 0.3197300434
C  5.8817901611 1.7262101173 -0.3827200234
O  7.0301504135 1.2537900209 0.3433100283
C  5.9818606377 1.6216101646 -1.8809801340
C  6.1039605141 2.9622602463 -1.2104300261
H  3.5065002441 -1.0273500681 2.1379902363
H  2.5644302368 -0.1008500084 0.9489400983
H  3.2221302986 0.7051600218 2.4120802879
H  4.4359102249 2.2776601315 1.0868000984
H  3.7291502953 1.5472900867 -0.3819800317
H  6.7763905525 0.4421600401 0.8259100318
H  5.0836601257 1.4162600040 -2.4499602318
H  6.8801207542 1.1801301241 -2.2975802422
H  7.0849003792 3.4235601425 -1.1709101200
H  5.2873101234 3.6642904282 -1.3240200281
