11

C  0.7968500853 0.5774000287 0.1754800081
C  2.0974302292 0.4951100647 -0.1360900104
O  2.6675302982 -0.6322800517 -0.7483800650
C  2.5647201538 -1.8030600548 -0.0554900020
O  2.0692300797 -1.9990001917 1.0434800386
C  2.9533002377 1.6186201572 0.0310300011
C  3.6830604076 2.5621402264 0.1747500151
H  0.3758200109 1.4771300554 0.6125400066
H  0.1232200116 -0.2567300200 0.0133300014
H  3.0315501690 -2.5957701206 -0.6616000533
H  4.3309001923 3.3969101906 0.3055100143
