21

C  0.9116600752 1.9576901197 1.0373001099
C  2.4270501137 2.0502002239 1.1370501518
C  3.1012802124 1.4944401979 -0.1188400090
C  4.6410803795 1.5225301981 -0.0511700027
C  5.2223005295 0.7132900953 -1.2181700468
C  5.1922607422 2.9556400776 -0.0632200092
O  6.6121606827 2.9541602135 0.0220600013
H  0.4469200373 2.3392500877 1.9526001215
H  0.5873900056 0.9209100604 0.8986900449
H  0.5383000374 2.5502500534 0.1953200251
H  2.7635302544 1.4909101725 2.0168499947
H  2.6998600960 3.0987501144 1.2922400236
H  2.7607202530 2.0540602207 -0.9989200234
H  2.7697200775 0.4575700164 -0.2591900229
H  4.9684805870 1.0293500423 0.8735300899
H  4.9499807358 1.1573500633 -2.1811301708
H  4.8476405144 -0.3154100180 -1.2010301352
H  6.3143005371 0.6643500328 -1.1622301340
H  4.8157901764 3.5403902531 0.7802600861
H  4.9113802910 3.4748203754 -0.9850900769
H  6.8547005653 2.5017101765 0.8477600813
