15

O  1.0233700275 0.1760400087 0.0459800027
C  2.4642801285 0.0986400098 0.1148600131
C  3.1469702721 0.9122300744 1.2203299999
N  3.7838401794 -0.2888900340 1.6915501356
C  3.0701704025 -1.1413301229 0.7810400724
C  5.1509103775 -0.3316700459 1.6610401869
N  5.9718208313 0.5561400652 2.1043200493
H  0.7650900483 -0.4773500264 -0.6268000603
H  2.8964300156 0.2984900475 -0.8743200898
H  2.4744701385 1.3270200491 1.9770801067
H  3.8224802017 1.6927300692 0.8592301011
H  3.6922302246 -1.7570501566 0.1245300099
H  2.3566801548 -1.7787301540 1.3124400377
H  5.5612907410 -1.2639501095 1.2345300913
H  5.4342904091 1.3231902122 2.5190300941
