14

O  0.9341800809 0.0062200003 0.2074500173
C  2.3626203537 0.0227400009 0.1561700106
C  2.8560702801 1.2245000601 -0.6375900507
O  4.2150802612 0.9952501059 -0.9952700734
N  4.3072905540 0.0053000003 -1.9953401089
C  3.6506702900 -1.0756100416 -1.7000401020
C  2.8685002327 -1.2872301340 -0.4355300367
H  0.6438000202 0.8178300858 0.6602700353
H  2.7217302322 0.0895300135 1.1904001236
H  2.8000702858 2.1312801838 -0.0265600029
H  2.2486202717 1.4100100994 -1.5325801373
H  3.7095603943 -1.9266901016 -2.3975400925
H  2.0451099873 -1.9756501913 -0.6563400030
H  3.5367202759 -1.7968201637 0.2680400014
