18

C  1.0006800890 -0.0537500046 0.0033400003
C  2.5200002193 0.0000000000 0.0000000000
C  3.0020201206 1.3611700535 0.0000000000
C  3.3993003368 2.4830701351 0.0000000000
C  3.8813202381 3.8442401886 0.0000000000
N  2.7552902699 4.7674403191 -0.1193100065
C  3.2034702301 6.1504006386 -0.0607200041
H  0.6573400497 -1.0929601192 0.0033100003
H  0.5850600600 0.4419300556 -0.8806500435
H  0.5889900923 0.4405800402 0.8899100423
H  2.8953902721 -0.5327600241 -0.8809100986
H  2.8993000984 -0.5341400504 0.8784000874
H  4.5736598969 3.9907402992 -0.8370100260
H  4.4352807999 4.0377202034 0.9262500405
H  2.1047301292 4.5867505074 0.6440500617
H  3.8916401863 6.3791704178 -0.8808800578
H  3.6944303513 6.3748106956 0.8918500543
H  2.3414301872 6.8173909187 -0.1594000161
