17

C  0.9569600821 -0.0531600043 -0.4796300232
C  2.4128501415 -0.1249200031 -0.0489000045
N  3.0176103115 1.2079100609 -0.0923700109
N  4.3309302330 1.2588200569 0.2439700067
C  4.8859701157 2.3895201683 -0.0325200036
O  6.1842002869 2.6765203476 0.2244600207
C  6.9439802170 1.6258000135 0.8296400905
H  0.5116100311 -1.0533400774 -0.4724000394
H  0.8634400368 0.3500300050 -1.4939001799
H  0.3733300567 0.5807400346 0.1966500133
H  2.9554200172 -0.7994101048 -0.7207500935
H  2.4761202335 -0.5348700285 0.9654000998
H  2.4637701511 1.8381301165 0.4948000312
H  4.3888406754 3.2538802624 -0.5040600300
H  7.9663004875 1.9877701998 0.9702200890
H  6.9754605293 0.7480500340 0.1766100079
H  6.5305504799 1.3703401089 1.8102700710
