15

C  1.0287101269 0.1127100065 -0.5675200820
C  2.1579401493 -0.0499300025 0.4028300345
C  2.4784002304 -1.4200401306 1.1330201626
C  3.8404502869 -0.6192200780 1.1721501350
O  3.4988701344 -0.3109200001 -0.2808300257
C  3.5729002953 0.6246200800 1.9410501719
C  2.4070000648 1.0227700472 1.4112501144
H  0.0635700077 0.1266300082 -0.0501500070
H  1.0041300058 -0.7118000388 -1.2881901264
H  1.1209200621 1.0450000763 -1.1349301338
H  2.4643201828 -2.3199901581 0.5108900070
H  1.9818100929 -1.6052701473 2.0890800953
H  4.7821202278 -1.1512701511 1.3025301695
H  4.1743502617 1.0858000517 2.7046902180
H  1.8138301373 1.8927302361 1.6330600977
