11

O  0.8975700736 0.5744700432 -0.7204000950
N  2.2703602314 0.4662300348 -0.9703700542
C  2.9163103104 1.0595201254 -0.0173900016
C  4.4189105034 1.1005600691 0.0000000000
C  4.9009203911 2.4617302418 0.0000000000
C  5.2982106209 3.5836303234 0.0000000000
H  0.5073800683 0.1258800030 -1.4941401482
H  2.3898501396 1.5414301157 0.8264100552
H  4.8077006340 0.5476599932 -0.8615000844
H  4.7477002144 0.5811200142 0.9063600302
H  5.6543202400 4.5884304047 -0.0044900002
