14

C  2.7516701221 3.1030101776 -1.1267601252
C  2.2630703449 1.9773300886 -0.5965200663
O  2.9292302132 0.9209501147 -0.0446500070
C  4.3608303070 0.9507300854 -0.0412700027
O  4.8901205063 1.8827501535 0.9082601070
N  6.2954001427 1.8479201794 0.8481900692
C  6.7630605698 2.6317601204 1.7591900826
H  2.0748400688 3.8514902592 -1.5277301073
H  3.8113803864 3.3261201382 -1.1717400551
H  1.1955901384 1.7855901718 -0.5513000488
H  4.7467303276 1.1561100483 -1.0481700897
H  4.6933603287 -0.0529700071 0.2453300208
H  7.8514404297 2.7451200485 1.8796100616
H  6.1196904182 3.2088704109 2.4444704056
