20

C  1.0068200827 1.6772102118 1.3918501139
N  2.4412901402 1.9387001991 1.3255701065
C  3.0149703026 1.3928900957 0.0894500092
C  4.5182805061 1.6907701492 -0.0035700004
C  4.8986601830 3.1784601212 -0.0087400004
C  4.3003606796 3.9581704140 -1.1707900763
O  4.5093202591 3.8029103279 1.2123200893
H  0.6065800190 2.0884201527 2.3230502605
H  0.7941100597 0.6038100719 1.3777801991
H  0.4792300463 2.1599702835 0.5636800528
H  2.8912100792 1.4840400219 2.1247901917
H  2.5020203590 1.8094100952 -0.7846100330
H  2.8730602264 0.3051300049 0.0641200021
H  4.9093103409 1.2189500332 -0.9127300978
H  5.0173506737 1.2065900564 0.8460300565
H  5.9898405075 3.2547001839 -0.0668600053
H  3.2091903687 4.0218105316 -1.0975700617
H  4.5672707558 3.5077803135 -2.1319301128
H  4.6669802666 4.9915704727 -1.1592500210
H  3.5915803909 3.4999802113 1.3908101320
