17

C  0.9632100463 -0.2023700178 -0.1623700261
C  2.4550702572 -0.2569400072 0.1869800091
C  2.6404702663 -0.9758200645 1.5253901482
O  3.1241900921 -1.0254800320 -0.8171200752
C  3.0389702320 1.1596100330 0.1993000060
C  4.4991202354 1.1643100977 0.5718400478
O  4.9748806953 1.9459501505 1.3910000324
H  0.8050700426 0.2834700048 -1.1321700811
H  0.3916800320 0.3454400003 0.5941200256
H  0.5460600257 -1.2120400667 -0.2509600222
H  2.1796202660 -0.4196500480 2.3483803272
H  3.7003402710 -1.1289800406 1.7566502094
H  2.1930801868 -1.9762901068 1.4923301935
H  2.7621502876 -0.7844900489 -1.6883200407
H  2.4979801178 1.7999302149 0.9052000642
H  2.9729402065 1.6082102060 -0.7988200784
H  5.1484704018 0.4727500379 0.0078100003
