20

C  1.1821200848 0.1787600219 0.1928600073
C  2.6667003632 -0.0311000012 -0.1027900055
C  2.8470902443 -0.7606800795 -1.4336100817
C  3.3891303539 1.2923200130 -0.1295100152
C  3.8663201332 1.9201102257 1.1555300951
C  4.8615503311 1.3540101051 0.1839800030
N  5.7183103561 2.2597601414 -0.5729300380
H  1.0446701050 0.6808000803 1.1567500830
H  0.6521700621 -0.7787200212 0.2321200073
H  0.7068400383 0.8008200526 -0.5739500523
H  3.0839402676 -0.6645100713 0.6903300881
H  2.4415800571 -0.1759000123 -2.2669403553
H  2.3404302597 -1.7312101126 -1.4192601442
H  3.9084503651 -0.9365800619 -1.6399301291
H  2.9966001511 1.9590201378 -0.8902800083
H  3.7156002522 1.3852300644 2.0864102840
H  3.7914602757 2.9964802265 1.2558300495
H  5.3502702713 0.4291100502 0.4844200313
H  5.2321701050 3.1235902309 -0.8096600175
H  5.9876403809 1.8384101391 -1.4614900351
