13

C  0.9248900414 -0.0381400026 -0.0026100001
C  2.3967001438 0.0864100009 -0.0032000002
C  3.2391002178 1.1667201519 -0.0012200001
O  2.8234503269 2.4407603741 0.0021100002
C  4.5419306755 0.6462100744 -0.0034300003
N  4.5385398865 -0.6900700331 -0.0067000007
N  3.2276103497 -1.0034700632 -0.0065400004
H  0.4426300526 0.9444600344 0.0101400008
H  0.5853000283 -0.5914500356 0.8788400888
H  0.5831000209 -0.5697500706 -0.8965000510
H  3.5879004002 3.0416703224 0.0030200002
H  5.4889807701 1.1681100130 -0.0028700002
H  2.9696903229 -1.9847501516 -0.0087900013
