14

C  0.8933500648 -0.1106000096 0.0318900011
C  2.4097003937 -0.0162200015 -0.0231100023
C  2.8703901768 1.4077800512 -0.0340000018
N  3.0597000122 2.1306402683 1.0505601168
C  3.4820101261 3.3967902660 0.6983800530
C  3.6116702557 3.6266403198 -0.6533700228
S  3.1918804646 2.2111601830 -1.5223501921
H  0.5792800188 -1.1589100361 0.0614400059
H  0.4331500232 0.3568400145 -0.8457000852
H  0.4970200360 0.3880100250 0.9235600829
H  2.7812402248 -0.5535700321 -0.9030800462
H  2.8341002464 -0.5188200474 0.8537901044
H  3.6838603020 4.1223702431 1.4767800570
H  3.9235804081 4.5302700996 -1.1561701298
