19

C  0.9756000638 0.0311400015 -0.0215900000
C  2.4999103546 0.0094300006 0.0004600000
C  3.0540103912 -1.2712700367 0.6448300481
C  3.3875701427 -0.9106100798 2.0923602581
C  3.5623202324 0.5692100525 2.0278801918
C  3.0733902454 1.0788600445 0.8888300657
C  3.0638701916 2.5156602859 0.5023000240
H  0.5903000236 -0.7891700268 -0.6367500424
H  0.6028100848 0.9700400829 -0.4449200630
H  0.5517500639 -0.0757600069 0.9833900332
H  2.8842504025 0.1012500077 -1.0216100216
H  3.9771304131 -1.5667401552 0.1270400137
H  2.3673202991 -2.1222500801 0.5812700391
H  4.2979602814 -1.4160701036 2.4253902435
H  2.5681402683 -1.1669700146 2.7711403370
H  4.0035300255 1.1509799957 2.8260002136
H  2.7761602402 2.6380901337 -0.5466900468
H  4.0577101707 2.9583301544 0.6250300407
H  2.3491702080 3.0738601685 1.1149100065
