13

O  2.1262903214 0.7114800215 -0.4247500300
C  2.4215803146 1.8824701309 -0.6438200474
C  3.7317702770 2.5399801731 -0.2527000010
C  4.7392005920 1.5450501442 0.2442200184
C  5.9851503372 1.4443302155 -0.2406700253
C  6.9179906845 0.4292900562 0.2876400054
O  8.0728006363 0.3601500094 -0.1137500033
H  1.6931500435 2.5578000546 -1.1270900965
H  3.5146901608 3.2717602253 0.5319100618
H  4.1039805412 3.0783700943 -1.1315300465
H  4.4000101089 0.8749200702 1.0341800451
H  6.3741302490 2.0839800835 -1.0246000290
H  6.5194902420 -0.2515200078 1.0594700575
