15

O  2.1157400608 -0.3609300256 -1.3689701557
C  2.3325803280 0.0592000037 -0.0268300027
C  3.1820602417 1.3108800650 -0.0463300049
C  2.5113101006 2.6093602180 -0.5890700817
C  2.9979300499 3.4060502052 0.6451500654
C  3.2819201946 2.0432002544 1.3080501556
O  3.4749102592 1.6831800938 2.4481000900
H  1.6142301559 -1.1942801476 -1.3287601471
H  2.8430802822 -0.7466300726 0.5101400614
H  1.3591400385 0.2341300249 0.4429300427
H  4.1773405075 1.1341700554 -0.4752900302
H  1.4185900688 2.5569503307 -0.6655700803
H  2.9059300423 2.9628601074 -1.5466501713
H  3.9022302628 3.9990901947 0.4835300148
H  2.2341101170 4.0052103996 1.1446701288
