13

C  1.0000001192 0.0000000000 0.0000000000
C  2.4440002441 0.0000000000 0.0000000000
C  3.6341602802 0.0000000000 0.0000000000
C  5.0401601791 0.0000000000 0.0000000000
C  5.6971802711 1.1379899979 0.0000000000
C  7.1031808853 1.1379899979 0.0000000000
C  8.2933406830 1.1379899979 0.0000000000
H  0.6060000658 1.0208801031 0.0116900010
H  0.6059300303 -0.5205300450 0.8782500625
H  0.6059300303 -0.5002800226 -0.8899400830
H  5.5522704124 -0.9575300813 -0.0000000000
H  5.1839003563 2.0949902534 0.0000000000
H  9.3575811386 1.1382400990 -0.0000000000
