20

C  2.1433601379 -1.3469301462 -0.0882900059
N  3.5888402462 -1.1078500748 -0.1373600066
C  4.1258902550 -1.6059901714 -1.4062300920
C  3.8590304852 0.3287500143 0.0378800035
C  5.3293805122 0.6700200438 0.1471300125
C  6.0852704048 0.0440100022 1.2848900557
C  5.9264707565 1.5127500296 -0.7140300274
H  1.7307001352 -1.0267100334 0.8740000725
H  1.9256501198 -2.4159703255 -0.1818500161
H  1.6097801924 -0.8162800670 -0.8865000606
H  3.8859803677 -2.6684100628 -1.5321201086
H  5.2185006142 -1.5403500795 -1.4285401106
H  3.7264103889 -1.0607601404 -2.2685701847
H  3.3862104416 0.6704300642 0.9699900746
H  3.3882904053 0.9054800272 -0.7707300186
H  5.5901803970 0.2603600323 2.2378301620
H  7.1103401184 0.4263500273 1.3534001112
H  6.1457905769 -1.0424400568 1.1607900858
H  5.3787508011 1.9700400829 -1.5318201780
H  6.9799008369 1.7602001429 -0.6280500293
