12

C  2.7530002594 -1.1903001070 0.3627800345
C  2.2873702049 0.0417500027 0.1132300049
C  3.0511703491 1.2480601072 0.0203300025
N  2.4876101017 2.4380502701 -0.2347400188
O  3.5190703869 3.3577203751 -0.2498200089
C  4.6893701553 2.7230904102 -0.0059100003
C  4.4533100128 1.3856700659 0.1728700101
H  2.0690300465 -2.0324900150 0.4089300334
H  3.8042201996 -1.3994001150 0.5258400440
H  1.2148400545 0.1549700052 -0.0375399999
H  5.5692305565 3.3484201431 0.0059700008
H  5.1882004738 0.6243700385 0.3824800253
