15

C  1.1525201797 0.6191000938 -0.7914900184
N  2.3078203201 0.3669600189 -0.2735000253
O  3.0668201447 1.5484101772 -0.2722200155
C  4.3839902878 1.2445400953 0.2001900077
C  5.2178106308 2.4856503010 0.1117500141
C  5.4818000793 3.3258802891 1.3338900805
N  6.5432205200 2.5183501244 0.7387300730
H  0.4056900144 -0.1839900017 -0.8817500472
H  0.8651900291 1.6167900562 -1.1624799967
H  4.8211307526 0.4651300311 -0.4344800413
H  4.3198304176 0.8716300130 1.2293901443
H  5.1366305351 2.9702403545 -0.8537200689
H  5.1161003113 2.9857401848 2.2948801517
H  5.5647802353 4.3990802765 1.2201300859
H  7.1833705902 3.1002602577 0.1942700148
