16

C  3.2630302906 -1.1067601442 -0.8125001192
C  2.5452501774 0.0698100030 -0.2084600180
O  1.4639900923 -0.0502900034 0.3613300025
N  3.1831803322 1.2674000263 -0.3511800170
C  2.8940203190 2.5386099815 0.2829800248
C  4.1185402870 3.0776803493 -0.4672700465
C  4.5309405327 1.6245200634 -0.7379300594
H  4.2424402237 -1.2313500643 -0.3434700370
H  3.3789303303 -0.9592800736 -1.8894201517
H  2.6788504124 -2.0158600807 -0.6442200541
H  2.9878003597 2.5021202564 1.3718801737
H  1.9367802143 2.9758303165 -0.0091100009
H  3.8708403111 3.6445302963 -1.3720200062
H  4.8200702667 3.6594102383 0.1369300187
H  4.7759499550 1.3965500593 -1.7775801420
H  5.2906703949 1.2204900980 -0.0629800037
