17

O  3.0293502808 -0.9622600675 -0.6364200115
C  2.4728300571 0.0778800026 0.1570700109
C  3.2754004002 1.3556201458 -0.0413500033
C  3.2555203438 1.8692802191 -1.4887801409
C  3.3166301250 3.3518500328 -1.3042901754
C  3.0508103371 3.7073705196 -0.0431000032
C  2.7686002254 2.5197801590 0.8182600737
H  2.4999902248 -1.7616600990 -0.4724700153
H  2.5034701824 -0.2348000258 1.2060501575
H  1.4264900684 0.2156900167 -0.1356600076
H  4.3238601685 1.1491901875 0.2216300070
H  2.3414900303 1.5940301418 -2.0253200531
H  4.1205902100 1.4999400377 -2.0480802059
H  3.5210001469 4.0439600945 -2.1098601818
H  3.0102002621 4.7281503677 0.3122300208
H  3.3150203228 2.5726702213 1.7648000717
H  1.6964601278 2.4553401470 1.0312300920
