16

C  0.9456601143 0.0524400026 -0.1732700169
C  2.4374802113 0.0099300006 0.0377000012
N  2.8753201962 -0.0050900006 1.4541101456
C  3.2811801434 -0.7463100553 -0.9597700834
C  3.2988402843 0.7536600828 -0.9716500640
N  4.4964900017 1.4691600800 -0.5089600682
H  0.6812100410 0.0656700060 -1.2365499735
H  0.5205600262 0.9495600462 0.2893600166
H  0.4716100097 -0.8261600733 0.2772600055
H  3.7990102768 -0.4296000302 1.5346502066
H  2.2628300190 -0.6106500626 2.0014300346
H  2.7864003181 -1.2470400333 -1.7848801613
H  4.1724300385 -1.2632100582 -0.6241900325
H  2.8003602028 1.2251801491 -1.8164201975
H  4.7104301453 1.1596800089 0.4395000339
H  4.2666406631 2.4554302692 -0.3876400292
