12

N  0.8665500283 0.0452700034 -0.1086700112
C  2.0270202160 0.0317400023 -0.0815300122
C  3.5598702431 0.0131000010 -0.0440700017
C  4.7606306076 -0.0048500001 -0.0109700011
C  6.1922702789 -0.0304600019 0.0370700024
C  6.9404306412 -0.7504300475 -1.0541000366
C  6.9685406685 0.7491500378 -0.9915600419
H  6.6232705116 -0.0796800032 1.0336800814
H  6.3807902336 -1.2131301165 -1.8594701290
H  7.8410105705 -1.2880401611 -0.7795400620
H  7.8888506889 1.2272001505 -0.6752000451
H  6.4279007912 1.2982600927 -1.7544801235
