16

C  -1.5853301287 0.8513800502 0.5506100059
C  -1.1805000305 -0.2942600250 -0.3271200359
N  -0.3539700210 -1.4005501270 0.1835000068
C  0.9807800651 -1.2728700638 -0.4192100465
C  1.6753201485 0.0406500064 -0.0218800027
O  0.8274400830 1.1960500479 0.0727400035
C  -0.5036000013 1.0512501001 -0.4743800163
H  -2.5463302135 1.3157901764 0.3627700508
H  -1.3014901876 0.8393500447 1.5953100920
H  -1.8676100969 -0.5779000521 -1.1201701164
H  -0.2572200000 -1.3158100843 1.1965701580
H  1.6046901941 -2.1230702400 -0.1241100058
H  0.8846800327 -1.3236401081 -1.5111000538
H  2.1440300941 -0.0789100081 0.9602100849
H  2.4714901447 0.2695500255 -0.7392700315
H  -0.7455800176 1.6395101547 -1.3525401354
