18

C  2.0484902859 -0.4871600270 -1.3714500666
O  2.2453300953 0.0572500043 -0.0745500028
C  3.0647702217 1.2445701361 -0.0111900009
C  2.4167602062 2.5725500584 -0.4880000353
C  3.1749501228 3.2762300968 0.6600300670
C  3.1561303139 1.9189301729 1.3921601772
N  4.4617404938 1.6701301336 2.0022001266
H  1.4287199974 -1.3828901052 -1.2822800875
H  3.0098302364 -0.7635501027 -1.8134500980
H  1.5358800888 0.2360100150 -2.0116400719
H  4.0411701202 1.0672401190 -0.4850100577
H  1.3257501125 2.5999901295 -0.3872500360
H  2.6898102760 2.8973302841 -1.4953601360
H  4.1618905067 3.6476504803 0.3570000529
H  2.6304702759 4.0871305466 1.1517300606
H  2.2949001789 1.7573200464 2.0482201576
H  5.2597203255 1.8017001152 1.3845001459
H  4.5465903282 0.7175000310 2.3623702526
