16

C  3.0851302147 -1.1606000662 -0.4876200259
C  2.4557802677 0.0598000064 0.1644700170
C  3.3976702690 1.2258100510 0.1688100100
C  3.4964802265 2.1320900917 -1.0289500952
C  2.8510901928 2.6355102062 0.2412400246
C  3.5399503708 3.6118102074 1.0384701490
N  4.0960702896 4.4002904892 1.6822900772
H  2.3884100914 -2.0042901039 -0.4707400501
H  3.9981701374 -1.4595601559 0.0377800055
H  3.3506402969 -0.9554700851 -1.5299001932
H  2.1851601601 -0.1812300086 1.1987000704
H  1.5263600349 0.3094800115 -0.3609200418
H  4.3117899895 1.0056201220 0.7124800086
H  2.8529601097 1.9426701069 -1.8810601234
H  4.4792900085 2.5042402744 -1.3001400232
H  1.7724201679 2.7538201809 0.2207700163
