13

C  2.2638101578 0.6148900390 -0.7760600448
C  2.4458601475 0.0230900031 0.6322800517
C  3.2448701859 1.2423501015 0.8734500408
N  3.2091603279 2.2652001381 1.6789901257
C  3.3032600880 3.3427302837 0.8167500496
C  3.2434203625 2.9352703094 -0.5070800781
N  3.2711203098 1.5765700340 -0.4370400310
H  1.2927800417 1.0626900196 -1.0180200338
H  2.5636501312 -0.0386900008 -1.6019800901
H  3.0358901024 -0.8998700976 0.6369799972
H  1.5689201355 -0.0992700085 1.2705000639
H  3.3271501064 4.3568401337 1.1952401400
H  3.1939401627 3.4759602547 -1.4403501749
