14

C  0.9398301244 0.0193700008 0.0061500007
C  2.4604902267 0.0135100009 0.0046300003
C  3.0273902416 1.4328200817 0.0000000000
C  4.4713501930 1.4232300520 -0.0014400001
C  5.6614904404 1.4153300524 -0.0026300002
C  7.1966605186 1.4043201208 -0.0041700001
N  8.3582706451 1.3959000111 -0.0053300005
H  0.5569400787 -1.0059701204 0.0094700009
H  0.5485799909 0.5251400471 -0.8823500872
H  0.5503800511 0.5302100182 0.8925500512
H  2.8170104027 -0.5372200608 -0.8747600913
H  2.8187901974 -0.5321900249 0.8864300847
H  2.6601803303 1.9767501354 0.8783600926
H  2.6583902836 1.9717301130 -0.8807001114
