17

C  1.0628200769 -0.3018400073 -0.0440200046
C  2.5737001896 -0.2613600194 -0.2173300236
C  3.1777403355 0.9826800823 0.4392100275
N  4.6281104088 1.0039401054 0.2230800241
C  5.3393507004 1.8439201117 1.1803600788
C  5.3903102875 0.3405500054 1.2764800787
H  0.6527400613 -1.2026801109 -0.5099800229
H  0.5918800235 0.5682500601 -0.5123600364
H  0.7897800207 -0.3124900162 1.0154000521
H  2.8120303154 -0.2763800025 -1.2875401974
H  3.0056302547 -1.1680400372 0.2240700275
H  2.9002404213 1.0093700886 1.5015301704
H  2.7464201450 1.8798501492 -0.0221500006
H  4.7682304382 2.3924903870 1.9195001125
H  6.2130403519 2.3587701321 0.7977100611
H  6.2957406044 -0.1595500112 0.9549300671
H  4.8529801369 -0.1495900005 2.0779001713
