11

O  1.2079201937 0.1147300079 0.4972400367
C  2.3664603233 0.0305500012 0.1293100119
C  3.1733200550 -1.2442100048 -0.0710500032
C  4.4895901680 -0.6627000570 -0.5201200247
C  4.4342703819 0.6700300574 -0.5636300445
N  3.2002303600 1.0897401571 -0.1869300157
H  2.7210202217 -1.8631501198 -0.8488300443
H  3.2735102177 -1.7840801477 0.8729400635
H  5.3552403450 -1.2580500841 -0.7705200315
H  5.2104101181 1.3680700064 -0.8447500467
H  2.8922901154 2.0506501198 -0.1322700083
