17

N  1.0773100853 0.1382900029 -0.3551400304
C  2.5283901691 0.0328900032 -0.1358300149
C  3.3519601822 -0.7258100510 -1.1322000027
C  3.4672102928 0.7801600099 -1.0712800026
N  2.8405101299 1.5595200062 -2.1826202869
C  4.7249603271 1.3883301020 -0.4805700183
O  5.4987707138 1.9612201452 -1.5317200422
H  0.7078000307 0.9488201141 0.1434800029
H  0.5997300744 -0.6726300120 0.0390700027
H  2.8277401924 -0.0488500036 0.9066501260
H  2.8492002487 -1.1763100624 -1.9800201654
H  4.1769700050 -1.3220801353 -0.7595500350
H  1.8261101246 1.4273400307 -2.0879702568
H  3.0649001598 1.1044101715 -3.0692300797
H  5.3408904076 0.6502700448 0.0423700027
H  4.4639902115 2.1857001781 0.2228200287
H  4.8268003464 2.3733201027 -2.1113901138
