12

C  0.9762800336 -0.0002400000 0.0619900040
C  2.4726400375 -0.0607400052 -0.0271400027
C  3.1570701599 -1.2068101168 0.1262499988
C  3.1600100994 1.2501200438 -0.3004600108
O  2.4916701317 2.2738602161 -0.4338300228
C  4.6099605560 1.3379300833 -0.4120500386
N  5.7703604698 1.3716400862 -0.4950000346
H  0.6664900780 0.6692500710 0.8712400794
H  0.5388200283 -0.9842900634 0.2620600164
H  0.5500100255 0.3653800189 -0.8780600429
H  2.6387703419 -2.1423602104 0.3231600225
H  4.2397904396 -1.2735100985 0.0657300055
