16

C  2.4387700558 -0.4973800182 -1.6014600992
C  2.4549500942 0.0467600040 -0.1796400249
C  3.3534801006 1.2671900988 -0.0377000012
C  3.5041604042 1.7291500568 1.3952201605
O  3.6187601089 3.1538002491 1.3157601357
N  2.9179902077 3.5701203346 0.1582700163
C  2.7666101456 2.5219402313 -0.5768899918
H  1.8100501299 -1.3919401169 -1.6551800966
H  3.4468302727 -0.7726800442 -1.9276100397
H  2.0375702381 0.2374500185 -2.3059101105
H  2.8066301346 -0.7458400726 0.4916700423
H  1.4265100956 0.2891900241 0.1153000072
H  4.3275303841 1.1133700609 -0.5149200559
H  4.3998999596 1.3162701130 1.8682801723
H  2.6342303753 1.4897701740 2.0171701908
H  2.2929701805 2.5513701439 -1.5678601265
