13

O  2.9818503857 -0.8234400153 0.9782500863
C  2.3921501637 0.0436000042 -0.0046500005
S  2.9590404034 1.7593101263 -0.0174300000
O  2.5339202881 2.3496801853 -1.2750002146
O  2.5681300163 2.3749003410 1.2387101650
C  4.6882205009 1.5634901524 -0.0114000011
C  5.3764805794 1.5137801170 -1.1600100994
H  2.4532401562 -1.6398001909 0.9803200960
H  1.3107200861 0.0748100057 0.1579000205
H  2.5966300964 -0.3731500208 -0.9953600764
H  5.1653103828 1.4834901094 0.9552400708
H  4.8934402466 1.6049901247 -2.1288900375
H  6.4546303749 1.3951802254 -1.1502400637
