16

C  0.7997900248 0.3010700345 0.8374500275
C  1.7706900835 0.0769300088 -0.0569000021
C  2.9538402557 0.9806700349 -0.2510000169
C  4.2900400162 0.2844500244 0.0342300013
C  4.4532604218 -0.2231100202 1.4693900347
C  4.4548802376 0.8703900576 2.4488301277
N  4.4592804909 1.7376900911 3.2212903500
H  -0.0419000052 -0.3791300356 0.9285200834
H  0.8141000867 1.1666600704 1.4940901995
H  1.7026702166 -0.7980300784 -0.7007600665
H  2.8617701530 1.8839201927 0.3638400137
H  2.9523303509 1.3205101490 -1.2939600945
H  5.1020903587 0.9852100611 -0.1994600147
H  4.4061002731 -0.5651300550 -0.6510500312
H  5.4054203033 -0.7625300884 1.5409201384
H  3.6696903706 -0.9475600719 1.7159801722
