17

C  0.5555300713 -0.1430900097 0.0481500030
N  1.9898101091 -0.2309200168 0.3005200028
C  2.4443399906 -1.5695600510 0.6813001037
C  2.8794503212 0.5834200382 -0.3839200437
N  2.6405103207 1.0245901346 -1.5820500851
C  4.1874203682 1.0224701166 0.1857100129
C  4.4564604759 1.0109900236 1.4967601299
H  0.2446400225 0.9005200863 -0.0689400062
H  -0.0097900014 -0.5539600253 0.8915900588
H  0.2824600339 -0.6984400749 -0.8552200198
H  1.6687501669 -2.1103701591 1.2350500822
H  3.3264102936 -1.5290501118 1.3263101578
H  2.6945102215 -2.1531701088 -0.2115700245
H  1.7461501360 0.6588300467 -1.9053400755
H  4.9012403488 1.4170900583 -0.5296700597
H  3.7290303707 0.6763200760 2.2277603149
H  5.4112606049 1.3718501329 1.8630001545
