13

O  1.0242800713 -0.0621300042 -0.3979500532
C  2.3916301727 -0.0133100012 0.0181600004
C  2.9273900986 1.4328200817 0.0000000000
C  2.3751401901 2.1986801624 1.1418900490
C  1.9262501001 2.8236701488 2.0637102127
C  4.3713903427 1.4328200817 0.0000000000
C  5.5615506172 1.4328200817 0.0000000000
H  0.7284300327 -0.9824100733 -0.2906599939
H  2.9574103355 -0.6454900503 -0.6762500405
H  2.4650201797 -0.4569100440 1.0185400248
H  2.5698602200 1.9153400660 -0.9192200303
H  1.5253400803 3.3803002834 2.8796901703
H  6.6273808479 1.4405801296 0.0030500004
