15

C  1.0576300621 -0.0041700001 0.0212700013
C  2.3961801529 -0.0111700017 0.0402700007
C  3.2568101883 1.2171100378 0.0605100058
C  4.4272198677 0.8444901109 -0.8315700293
C  4.5105204582 -0.6480300426 -0.6500900388
O  5.4951100349 -1.3090300560 -0.9630000591
C  3.2452702522 -1.2467800379 -0.0846400112
H  0.4866900444 -0.9262800813 -0.0406500064
H  0.4951600432 0.9241300225 0.0689800009
H  3.6038703918 1.4012001753 1.0843900442
H  2.7458000183 2.1145200729 -0.2996800244
H  4.2152299881 1.0598599911 -1.8844100237
H  5.3518304825 1.3357501030 -0.5192300081
H  2.8271503448 -1.9735401869 -0.7841800451
H  3.4563703537 -1.6863700151 0.8933900595
