14

C  2.0395202637 -0.8580400348 -0.7720300555
C  1.9649801254 0.4793700278 -0.7937700152
C  2.7250802517 1.3895000219 0.0621700026
C  4.1214804649 1.7471401691 -0.3004600108
N  3.0463302135 2.6790502071 -0.4806700349
C  2.9596903324 3.8066003323 0.3210000098
O  3.2491402626 3.8937301636 1.5067200661
H  1.4328300953 -1.4602600336 -1.4408801794
H  2.7032201290 -1.3767400980 -0.0874200091
H  1.2735100985 0.9380700588 -1.4990600348
H  2.4496603012 1.3882200718 1.1127401590
H  4.5475707054 1.3990601301 -1.2310100794
H  4.8214402199 1.9855301380 0.4902700484
H  2.5817902088 4.6627206802 -0.2610500157
