19

C  0.8262700438 -0.0398100019 -0.1370900124
C  2.2837102413 -0.3270700276 -0.2508500218
C  2.9530303478 -0.3697200418 -1.6029801369
N  3.1749701500 0.7466100454 -0.6836000681
C  4.4802303314 0.7079200149 -0.0077200006
C  5.4249005318 1.7473901510 -0.6343900561
N  6.7263402939 1.7788901329 0.0407200046
H  0.6162900329 0.4801100194 0.8031900525
H  0.2580100000 -0.9753100872 -0.1416200101
H  0.4593000412 0.5834000707 -0.9598200917
H  2.6302702427 -1.0040500164 0.5214800239
H  2.3640203476 -0.1414900124 -2.4831902981
H  3.7510702610 -1.0846600533 -1.7634501457
H  4.9520602226 -0.2839100063 -0.0393300056
H  4.3311605453 0.9541800618 1.0514100790
H  4.9749803543 2.7456400394 -0.5781900287
H  5.5856304169 1.5157800913 -1.6932600737
H  6.5922904015 2.0614399910 1.0111800432
H  7.2981605530 2.5070202351 -0.3862600327
