17

C  0.9888401031 0.0282200016 0.0621100031
C  2.4872102737 -0.1351100206 0.0483700037
C  2.9511902332 -1.5576300621 0.1947800070
C  3.2894301414 0.9396300912 -0.0918300003
C  4.7832508087 0.9936800599 -0.1156800091
N  5.2204303741 1.5461101532 -1.3898901939
H  0.6824900508 1.0743499994 -0.0425100029
H  0.5762100220 -0.3457600176 1.0045801401
H  0.5390600562 -0.5335500240 -0.7627900243
H  2.5185401440 -2.1766402721 -0.5982000232
H  2.6277003288 -1.9600400925 1.1603901386
H  4.0351104736 -1.6728801727 0.1372900158
H  2.8220601082 1.9202001095 -0.1907700151
H  5.2525305748 0.0202700030 0.0379600041
H  5.1250905991 1.6468701363 0.6935100555
H  4.9331302643 0.9096500874 -2.1332101822
H  6.2384104729 1.5613200665 -1.4109300375
