16

C  0.9579600692 0.5454000235 -1.1379001141
N  2.2566301823 0.5928601027 -0.5046700239
C  3.0573801994 1.7076102495 -0.2889000177
C  2.4905703068 3.0402002335 -0.7263801098
C  4.2653102875 1.5599201918 0.2886800170
C  5.2487506866 2.6251902580 0.5734900236
O  6.3099002838 2.3724801540 1.1360700130
H  0.6081200838 -0.4904400408 -1.1868101358
H  1.0057301521 0.9341601133 -2.1596202850
H  0.2241300195 1.1211900711 -0.5659101009
H  2.6454401016 -0.3063200414 -0.2296800166
H  1.4985500574 3.1938402653 -0.2878200114
H  2.3958501816 3.0684902668 -1.8170701265
H  3.0924603939 3.8996002674 -0.4278500080
H  4.6127705574 0.5768000484 0.5919700265
H  4.9992403984 3.6459500790 0.2564800084
