19

C  0.8311501145 0.2503200173 -0.3306800127
C  2.2860102654 0.1426600069 0.0683600083
C  2.5346601009 0.2517600060 1.5569400787
N  2.1202402115 -0.9787601233 2.2209501266
C  3.1668503284 -0.7914300561 -0.7368500829
C  3.2954602242 0.6914100647 -0.9280900359
N  4.5281600952 1.3582900763 -0.5226800442
H  0.7021500468 0.2292200178 -1.4187601805
H  0.4044900239 1.1899300814 0.0362100005
H  0.2489800155 -0.5793200135 0.0827000067
H  1.9847002029 1.1044901609 1.9708801508
H  3.5931301117 0.4130300283 1.7816401720
H  1.1166801453 -1.1050200462 2.1084702015
H  2.2823302746 -0.8877100348 3.2222802639
H  2.7158901691 -1.3681000471 -1.5369101763
H  3.9526202679 -1.3278599977 -0.2173900157
H  2.8918702602 1.0878701210 -1.8591201305
H  5.0518503189 0.8118100762 0.1590200067
H  4.3344202042 2.2607102394 -0.0920700133
