14

C  -0.0203500018 0.8476200700 -0.0501300059
C  -0.7447100878 -0.4596700370 -0.1489600092
C  0.7619500160 -0.4452700317 -0.0394400023
C  1.5082601309 -0.9231300354 1.1969600916
C  1.1209700108 -2.1412901878 1.9996000528
O  2.1724600792 -2.1899201870 1.0335500240
H  0.0386800021 1.4662301540 -0.9382001162
H  -0.1066800058 1.4060200453 0.8747600913
H  -1.1767400503 -0.7341400385 -1.1044901609
H  -1.3257601261 -0.7806200385 0.7074900270
H  1.2958101034 -0.6609700322 -0.9665101171
H  2.0771002769 -0.1587100178 1.7198901176
H  0.1976100206 -2.6522803307 1.7595701218
H  1.3986101151 -2.1745102406 3.0454401970
