13

C  1.1458001137 -0.1766800135 -0.5360300541
O  2.4436402321 -0.0203900021 0.0200300012
C  2.8940103054 1.3385500908 0.0000000000
C  2.3940801620 2.0459301472 1.1553500891
C  1.9820401669 2.6289601326 2.1076002121
C  4.3380103111 1.3385500908 0.0000000000
C  5.5281705856 1.3385500908 0.0000000000
H  0.8708800673 -1.2329701185 -0.4711000323
H  1.1424500942 0.1164500043 -1.5904101133
H  0.4067700505 0.4075300395 0.0203100014
H  2.5474400520 1.8228502274 -0.9217600822
H  1.6193901300 3.1449303627 2.9665303230
H  6.5934805870 1.3304800987 0.0064100004
