14

O  2.9873001575 -0.9548500776 -0.6315700412
C  2.3598303795 0.0889400020 0.0964300036
C  3.2748904228 1.2643901110 0.1124600098
C  3.3140702248 2.2220001221 -1.0511200428
C  2.7167401314 2.6546001434 0.2581700385
O  3.4972102642 3.5676102638 1.0416400433
H  2.3756601810 -1.7099201679 -0.6229900122
H  2.1728303432 -0.2575700283 1.1174399853
H  1.4014101028 0.3199500442 -0.3796400428
H  4.2110505104 1.0299100876 0.6051400304
H  2.6410300732 2.0483002663 -1.8832401037
H  4.2762804031 2.6222403049 -1.3459100723
H  1.6380702257 2.7730302811 0.2959600389
H  4.4525704384 3.4490001202 0.9038900733
