19

C  1.2556201220 -0.0745900050 -0.1514100134
N  2.7064101696 0.0629900023 -0.1391900033
C  3.3664402962 -0.4993600249 -1.3063100576
C  3.2902400494 1.0100400448 -1.1156700850
C  2.4119901657 1.8092901707 -2.0496699810
C  4.5307302475 1.7454102039 -0.6427699924
N  5.5188608170 1.8056200743 -1.7184901237
H  0.7851900458 0.8376800418 0.2298100144
H  0.9729100466 -0.8904500604 0.5224000216
H  0.8206600547 -0.3066100180 -1.1295701265
H  2.7672502995 -0.9611700773 -2.0821402073
H  4.3076205254 -1.0007500648 -1.1149100065
H  1.6622900963 1.1958600283 -2.5597002506
H  3.0113704205 2.2845101357 -2.8331201077
H  1.8927900791 2.5997900963 -1.4976700544
H  4.9806003571 1.2517600060 0.2266000062
H  4.2632603645 2.7624101639 -0.3356600404
H  5.8335304260 0.8585401177 -1.9243100882
H  6.3404803276 2.3018403053 -1.3754601479
