20

C  0.9487700462 -0.2081600130 0.0621900037
C  2.4566102028 -0.3254200220 0.2259500176
C  3.1589801311 0.9931900501 -0.1147600114
C  4.6934204102 0.8984100819 -0.0225500017
N  5.2956304550 2.1520600319 -0.4761500359
C  5.1721601486 0.6348500252 1.3772801161
C  5.8822007179 -0.4406100512 1.7458301783
H  0.4657700360 -1.1596400738 0.3063099980
H  0.6841200590 0.0524900034 -0.9676400423
H  0.5410200357 0.5601400137 0.7271200418
H  2.8275301456 -1.1233301163 -0.4276600480
H  2.6753101349 -0.6204500198 1.2579700947
H  2.7864003181 1.7837901115 0.5506600738
H  2.8779401779 1.2851400375 -1.1356400251
H  5.0393705368 0.1016500071 -0.6926400661
H  4.8895602226 2.9302601814 0.0399800017
H  5.0483107567 2.3065402508 -1.4518700838
H  4.9211907387 1.3743600845 2.1345403194
H  6.1702704430 -1.2045600414 1.0308101177
H  6.2028102875 -0.5673600435 2.7749001980
