8

C  1.0040401220 -0.0029500001 -0.0064000003
C  2.5159602165 -0.0070200004 0.0005900000
H  0.6223500371 1.0224000216 -0.0016400001
H  0.6141100526 -0.5197400451 0.8756100535
H  0.6223700643 -0.5084200501 -0.8985700607
H  2.8976502419 0.5021000504 0.8906200528
H  2.9058902264 0.5060900450 -0.8835700154
H  2.8976302147 -1.0324300528 0.0000600000
