15

C  2.3062701225 0.6446200609 2.2412400246
C  2.9998703003 0.2022500187 1.3661701679
C  3.8615303040 -0.3346100152 0.3024100363
C  4.6662902832 0.7639300823 -0.3979400098
C  5.6828703880 1.4737601280 0.5008500218
C  6.7573103905 0.5740900040 0.9467900991
C  7.6321206093 -0.1599000096 1.3194501400
H  1.6980201006 1.0402801037 3.0213901997
H  3.2328500748 -0.8358200788 -0.4435500503
H  4.5281805992 -1.1018400192 0.7110300660
H  3.9758801460 1.5152000189 -0.8030800819
H  5.1874704361 0.3208500445 -1.2564201355
H  5.1860003471 1.9229201078 1.3677800894
H  6.1275901794 2.3020904064 -0.0636900067
H  8.4052305222 -0.8116700649 1.6550900936
