17

C  1.3131400347 0.0093400003 1.1018900871
C  2.7591700554 0.0079400009 0.6248900890
C  3.2326302528 1.3702301979 0.1006400138
N  3.2041501999 2.4230902195 1.1358400583
C  4.6670203209 1.2747600079 -0.4563200474
O  5.1049203873 2.5722103119 -0.8578701019
H  1.0032601357 -1.0080400705 1.3622800112
H  0.6413200498 0.3780500293 0.3201900423
H  1.1842300892 0.6319300532 1.9924801588
H  2.8562002182 -0.7345100641 -0.1764600128
H  3.4053001404 -0.3294200301 1.4449402094
H  2.5737202168 1.7046701908 -0.7102600932
H  3.6979103088 2.0934500694 1.9666701555
H  2.2387101650 2.5761501789 1.4335100651
H  4.7092800140 0.6128300428 -1.3257300854
H  5.3652205467 0.9016200900 0.3004700243
H  4.6833701134 3.1780202389 -0.2117200196
