13

S  0.8436800241 -0.0329000019 0.0101600010
C  2.5055999756 -0.0223700032 0.0029000002
N  3.2017803192 1.1447700262 -0.0033400003
C  4.6440801620 1.2494701147 -0.0337300040
C  5.2958602905 -0.0912500024 -0.0109300008
C  4.5909504890 -1.2250100374 0.0060100006
N  3.2267100811 -1.1782400608 0.0066100000
H  2.6514601707 1.9937101603 -0.0078000003
H  4.9502701759 1.8420902491 0.8335300684
H  4.9171905518 1.7948501110 -0.9420500398
H  6.3791303635 -0.1254500151 -0.0119200014
H  5.0516200066 -2.2070701122 0.0186400004
H  2.6966102123 -2.0427100658 0.0160700008
