17

C  0.9628200531 -0.0407600030 -0.0181499999
N  2.4045302868 0.0363800004 -0.1584500074
C  3.0531001091 1.2705500126 0.2526700199
C  4.4652199745 1.2782701254 -0.3083500266
C  5.1907205582 0.0193200018 0.1429500133
N  4.4449105263 -1.2088201046 -0.1502799988
C  3.1691403389 -1.0979400873 -0.2534100115
H  0.4939000309 0.9337000847 -0.1897300184
H  0.6953900456 -0.3817700148 0.9865100980
H  0.5413600802 -0.7392200232 -0.7482800484
H  2.5054900646 2.1411402225 -0.1250900030
H  3.0718603134 1.3340600729 1.3473200798
H  5.0059499741 2.1705100536 0.0259200018
H  4.4280500412 1.3081500530 -1.4053601027
H  5.3957805634 0.0610300042 1.2185300589
H  6.1601605415 -0.0340200029 -0.3653500378
H  2.5737302303 -2.0052301884 -0.4525100291
