15

N  0.8469900489 1.7605601549 -0.0433400050
N  2.2365300655 1.8621002436 0.1811200082
C  3.0871503353 0.8828900456 -0.3041600287
O  2.7141101360 -0.0977800116 -0.9386900663
C  4.5283303261 1.1307501793 -0.0178200006
C  5.5646004677 0.0652300045 -0.2904600203
C  5.4980206490 1.2827901840 -1.1664201021
H  0.5533900261 0.8408300877 0.3073400259
H  0.7129500508 1.6680800915 -1.0575001240
H  2.6000101566 2.6789400578 0.6654500961
H  4.7155704498 1.7497901917 0.8545100689
H  5.2363505363 -0.8798100352 -0.7101600170
H  6.3953409195 -0.0230400022 0.3991000354
H  6.2861003876 2.0202002525 -1.0740300417
H  5.1260004044 1.1524701118 -2.1774802208
