19

C  0.8179100752 0.2512100041 0.0112700006
C  2.3456201553 0.0411800034 0.0138700008
C  2.7236900330 -0.7516100407 1.2791700363
C  2.7245502472 -0.7775900364 -1.2339700460
C  3.0273902416 1.4328200817 0.0000000000
C  4.4707202911 1.3888100386 0.0004300000
C  5.6603207588 1.3525301218 0.0007800001
H  0.4960600436 0.8016700745 -0.8797600865
H  0.4954100549 0.8201200366 0.8905301094
H  0.2842900157 -0.7062600851 0.0210900027
H  2.4822800159 -0.1855700165 2.1854600906
H  3.7923502922 -0.9886200428 1.3052101135
H  2.1787099838 -1.7017400265 1.3259000778
H  2.4839601517 -0.2304400206 -2.1522102356
H  2.1797802448 -1.7286301851 -1.2617300749
H  3.7934501171 -1.0151600838 -1.2544701099
H  2.6876502037 2.0097301006 0.8701400757
H  2.6877002716 1.9919801950 -0.8816800714
H  6.7254705429 1.3193000555 0.0011000001
