19

C  1.9298300743 3.5842804909 -0.1223600134
C  2.6776900291 2.2683701515 -0.2027300149
O  4.0767302513 2.5413601398 -0.1649500132
C  4.8457703590 1.3391300440 -0.2084200233
C  6.3294706345 1.6877400875 -0.2325400114
O  7.0972805023 0.4850000441 -0.2794900239
C  8.4902801514 0.7604600787 -0.3504400253
H  0.8495000601 3.4222102165 -0.1677800268
H  2.2235801220 4.2462601662 -0.9433800578
H  2.1695501804 4.1066403389 0.8095800281
H  2.4280202389 1.7555100918 -1.1382100582
H  2.4001300335 1.6295001507 0.6431100368
H  4.5879902840 0.7580100894 -1.1025800705
H  4.6220102310 0.7203100920 0.6685200334
H  6.5911502838 2.2649202347 0.6604600549
H  6.5491304398 2.3096902370 -1.1090301275
H  9.0288906097 -0.1907300204 -0.3606500030
H  8.8134202957 1.3362101316 0.5223800540
H  8.7253198624 1.3048900366 -1.2696300745
