11

C  1.0620000362 -0.0353600048 -0.1530600190
C  2.3717603683 -0.0099000009 0.0651400089
N  3.2064201832 -1.0608100891 0.2252700180
C  4.4906802177 -0.6043800712 0.4307100475
O  5.4549403191 -1.3308500051 0.6060800552
N  4.4969205856 0.7838200331 0.4043100178
C  3.2674202919 1.1458801031 0.1918600202
H  0.5187700391 -0.9715400934 -0.2252700180
H  0.4928700328 0.8817300200 -0.2662300169
H  2.9784102440 -2.0409600735 0.2065800279
H  2.8909502029 2.1743900776 0.1086700112
