18

C  1.0383200645 -0.2354200184 0.1786800176
C  2.5123100281 0.0600600056 -0.1179400086
O  3.3286502361 -0.4490800500 0.9628900886
C  2.9861600399 -0.6213900447 -1.4278000593
N  2.8308801651 -2.0830202103 -1.3834800720
C  2.7441802025 1.5824902058 -0.1875400096
O  4.1349501610 1.8735301495 -0.3199600279
H  0.3931000233 0.0895600095 -0.6429800391
H  0.7155800462 0.2769300342 1.0920701027
H  0.8722900748 -1.3029901981 0.3566600084
H  2.8617701530 -0.2608700097 1.7960902452
H  4.0498704910 -0.4136400521 -1.5904301405
H  2.4301002026 -0.2311800122 -2.2865099907
H  3.2804801464 -2.4071102142 -0.5231700540
H  3.3608901501 -2.4951000214 -2.1501002312
H  2.4083302021 2.0661802292 0.7356900573
H  2.2120802402 2.0344400406 -1.0300201178
H  4.5935502052 1.2438100576 0.2714200318
