18

C  1.4662601948 -0.0748800039 -0.7782300711
N  2.8779001236 0.2495600134 -0.9485400915
C  3.4877803326 0.6194100380 0.3306500316
C  4.9709005356 0.8838000298 0.1378200054
C  5.7803702354 1.0845500231 1.4243500233
O  6.7633705139 0.1087300107 1.0009900331
C  5.8796100616 -0.3363500237 -0.0602300055
H  1.0345100164 -0.3434100449 -1.7477800846
H  0.9033001065 0.7775700688 -0.3835100234
H  1.3342001438 -0.9325400591 -0.1104600057
H  2.9575202465 1.0277800560 -1.6031901836
H  3.3398902416 -0.1842100173 1.0628200769
H  3.0052402020 1.5214201212 0.7253300548
H  5.1662907600 1.6796600819 -0.5936599970
H  5.2993507385 0.7760100961 2.3580801487
H  6.2199101448 2.0784900188 1.5469901562
H  6.3934102058 -0.3820600212 -1.0244100094
H  5.4460606575 -1.3132801056 0.1759900153
