15

N  1.2035000324 1.5198700428 -0.4862800241
C  2.4182403088 1.6547901630 0.0853200033
N  2.6389603615 2.2179200649 1.2166800499
O  3.4040303230 1.1421000957 -0.6882500648
C  4.7609505653 1.2289900780 -0.2096600085
C  5.8058805466 0.7016800642 -1.1549900770
C  5.6596403122 2.1809601784 -0.9490400553
H  1.2559601068 1.3269400597 -1.4799101353
H  0.5246000290 2.2275800705 -0.2482900172
H  1.7454501390 2.4973101616 1.6227802038
H  4.9438405037 1.0742700100 0.8501700759
H  5.4741101265 0.2817300260 -2.0967602730
H  6.6696805954 0.2096300125 -0.7246600389
H  6.4198904037 2.6968903542 -0.3752000332
H  5.2283701897 2.7688601017 -1.7499401569
