15

O  2.1389801502 -0.6874400377 1.1755701303
C  2.6340703964 -0.2205800116 -0.0683300048
C  2.9830904007 1.2183400393 0.0987600088
C  4.1951303482 1.7402601242 -0.1495400071
C  4.5707907677 3.1478202343 0.0117700007
C  4.9369406700 3.6452903748 1.3874101639
O  5.9130101204 3.5380201340 0.3454700410
H  1.9723201990 -1.6389501095 1.0703301430
H  1.8507900238 -0.3334100246 -0.8239200115
H  3.4987502098 -0.8271400332 -0.3561000228
H  2.1841201782 1.8637400866 0.4545800090
H  4.9914803505 1.0845601559 -0.4967900515
H  4.0272502899 3.8279502392 -0.6367800236
H  5.0010304451 2.9389503002 2.2059299946
H  4.6163902283 4.6389904022 1.6734601259
