15

C  1.1939901114 -0.5422700047 -0.5280900598
C  2.4472401142 -0.2727100253 -0.1456699967
C  3.0341203213 1.0412900448 -0.2500800192
C  4.2890100479 1.3100501299 0.1429600120
C  4.9265303612 2.6652002335 0.0487500019
C  6.1251306534 2.5929701328 -0.7970600724
C  7.1068005562 2.5361602306 -1.4879001379
H  0.7943300605 -1.5471301079 -0.4337500334
H  0.5384399891 0.2175900191 -0.9411700368
H  3.0601303577 -1.0747700930 0.2606900334
H  2.4180202484 1.8328301907 -0.6720600724
H  4.9065403938 0.5212900043 0.5684500337
H  5.1990504265 2.9996402264 1.0559301376
H  4.2282800674 3.4054801464 -0.3582400382
H  7.9755706787 2.4809703827 -2.1022200584
