14

C  1.5835701227 -0.3810100257 0.1314600110
N  2.5858800411 0.3329300284 0.5189100504
N  2.7621002197 1.4182001352 -0.2700300217
C  2.8193399906 2.7277603149 0.4491800368
C  3.8715703487 3.1749801636 -0.5770100951
C  4.1721401215 1.6732301712 -0.6966100335
H  1.3238801956 -1.2976900339 0.6840500236
H  0.9513800740 -0.1300900131 -0.7386400700
H  3.1941401958 2.6699800491 1.4792501926
H  1.8842202425 3.2949502468 0.4409600198
H  3.4524002075 3.6243202686 -1.4848001003
H  4.6808905602 3.8036704063 -0.1993700117
H  4.4156999588 1.3217401505 -1.7031002045
H  4.9364304543 1.3123900890 0.0036600004
