19

N  2.0118300915 -0.2828000188 -1.4388201237
C  2.3580102921 0.0807500035 -0.0679000095
C  3.0999302864 1.4137300253 -0.0163000021
C  2.2892601490 2.6094000340 -0.4960900545
C  3.0285503864 3.7659602165 0.1450100094
N  3.3795201778 3.2761702538 1.4789601564
C  3.5014004707 1.8159000874 1.4029800892
H  1.5504001379 -1.1918100119 -1.4413601160
H  2.8608202934 -0.3914000392 -1.9920301437
H  2.9826903343 -0.7089300752 0.3646800220
H  1.4385901690 0.1316599995 0.5261500478
H  4.0126705170 1.3462500572 -0.6262900829
H  1.2565301657 2.5616099834 -0.1289499998
H  2.2664802074 2.6898500919 -1.5871100426
H  3.9393801689 3.9978103638 -0.4195600152
H  2.4148101807 4.6693806648 0.1994900107
H  4.2483506203 3.7008702755 1.7981001139
H  4.5258207321 1.4950700998 1.6208900213
H  2.8438601494 1.3701502085 2.1571102142
