14

N  0.9475200772 -0.0079900008 -0.3330500424
C  2.3613901138 0.0401600003 0.0315800048
C  3.3190202713 -0.8172800541 -0.7454100251
C  3.3532402515 0.6825200319 -0.9096100926
C  4.4105801582 1.5779600143 -0.3759000301
O  5.2133107185 1.0552700758 0.5790400505
O  4.5257401466 2.7254102230 -0.7759600282
H  0.4813400507 0.8747000694 -0.1169400141
H  0.4499900341 -0.7246600389 0.1960700154
H  2.5470800400 0.1526300162 1.0977801085
H  2.9280803204 -1.3947000504 -1.5790901184
H  4.0986204147 -1.3419600725 -0.2115600258
H  2.9555902481 1.0500100851 -1.8535701036
H  5.0063605309 0.1362200081 0.8146500587
