15

C  0.8536900878 0.2695100307 0.1751300097
C  2.3354001045 0.0477300063 0.0456800014
C  2.9296202660 -1.1531101465 -0.0930300057
C  2.2902200222 -2.5015501976 -0.1054200083
O  2.5178601742 -3.0943100452 -1.3740100861
C  3.1745002270 1.2076501846 0.0555200018
C  3.8743205070 2.1813900471 0.0635800064
H  0.5320400000 1.0879300833 -0.4791700244
H  0.6008700132 0.5375300646 1.2063300610
H  0.2610600293 -0.6043400168 -0.1053600088
H  4.0154705048 -1.1882700920 -0.1888900101
H  1.2153902054 -2.4881300926 0.0845500082
H  2.7520999908 -3.1370401382 0.6564400792
H  2.2203602791 -2.4541802406 -2.0429801941
H  4.4981503487 3.0457401276 0.0705900043
