11

C  3.4359102249 -1.3797801733 -1.8088500500
C  2.8629002571 -0.7523900867 -0.7757100463
O  3.3946301937 0.1718000025 0.0770900026
C  4.7574000359 0.5573500395 -0.1319500208
C  5.1620402336 1.5502001047 0.8764300942
N  5.5093803406 2.3345701694 1.6598201990
H  2.8596301079 -2.0954501629 -2.3890202045
H  4.4619302750 -1.2210401297 -2.1160502434
H  1.8296302557 -0.9396800995 -0.4977900386
H  4.8669605255 0.9954700470 -1.1310300827
H  5.4068703651 -0.3221400082 -0.0493900031
