19

N  0.3922500312 0.9973701239 0.2051800042
C  1.8197700977 0.6889900565 0.2908500135
C  2.6849303246 1.8853402138 -0.1455000043
N  4.1114006042 1.5478701591 -0.0649900064
C  4.9361705780 2.6867601871 -0.4592600465
C  6.4132204056 2.4160401821 -0.3797500134
C  7.0230307579 1.3060600758 0.0612300076
H  -0.1389800012 0.1919900179 0.5349600315
H  0.1743300110 1.7581001520 0.8484401107
H  2.0297601223 -0.1757600158 -0.3485100269
H  2.0637502670 0.4056600332 1.3214001656
H  2.4683501720 2.7400701046 0.5063900352
H  2.4236102104 2.1680603027 -1.1726701260
H  4.3030800819 0.7796600461 -0.7072300315
H  4.7208700180 3.5456001759 0.1876200140
H  4.7015500069 2.9781200886 -1.4903302193
H  7.0423202515 3.2371702194 -0.7208700776
H  6.4653606415 0.4539200366 0.4350400567
H  8.1064701080 1.2359501123 0.0726300031
