16

C  1.0143100023 -0.1354200095 0.2033500224
N  2.4644403458 -0.1298200190 0.0685100034
C  2.9611601830 1.2216501236 -0.1703700125
C  4.4525499344 1.1862000227 -0.2817100286
C  5.1361403465 1.6153801680 -1.3522500992
C  6.5549306870 1.5642402172 -1.3953801394
C  7.7531404495 1.5235800743 -1.4373201132
H  0.6686500907 -1.1588000059 0.3792100251
H  0.5246900320 0.2334400117 -0.7039500475
H  0.6932300329 0.4717000425 1.0559201241
H  2.7284600735 -0.7203700542 -0.7197700739
H  2.6960101128 1.8756401539 0.6687400341
H  2.5114302635 1.6414101124 -1.0783101320
H  4.9873003960 0.7938000560 0.5814200640
H  4.6201701164 2.0137500763 -2.2205002308
H  8.8172912598 1.4863300323 -1.4723501205
