18

C  1.7386301756 -0.5306600332 0.9828100801
N  3.1009101868 -0.3538900316 0.4946900606
C  3.2697203159 0.9734600782 -0.1043100059
C  4.6896705627 1.1306600571 -0.6574400663
C  4.8982801437 2.4937500954 -1.2394900322
C  5.6466102600 2.6832003593 -2.5332102776
O  4.2134304047 2.7260200977 -2.4769501686
H  1.6385101080 -1.5242000818 1.4302700758
H  1.0084600449 -0.4525000155 0.1705200076
H  1.4958901405 0.2055900097 1.7555801868
H  3.2948002815 -1.0670400858 -0.2087500095
H  3.0853002071 1.7498100996 0.6481201053
H  2.5452601910 1.1190100908 -0.9149000645
H  4.8812503815 0.3578700125 -1.4129301310
H  5.4229607582 0.9796200991 0.1447000057
H  4.9075608253 3.2874603271 -0.5045700669
H  6.1002702713 1.8244501352 -3.0123202801
H  6.1663804054 3.6185903549 -2.6956901550
