17

C  1.9050201178 0.1574000120 -0.7320000529
O  1.6389400959 -0.0844200104 0.6546000838
C  0.4967600405 0.0531700067 -0.2020300180
C  -0.3595100343 1.2466801405 0.0950000137
C  -1.7831401825 0.7253800035 -0.1239500120
C  -1.6912802458 -0.7558800578 0.2341500223
C  -0.3372400403 -1.1831501722 -0.3365900218
H  2.2882902622 1.1324601173 -1.0051100254
H  2.3033602238 -0.6635000706 -1.3150900602
H  -0.2306700200 1.5692900419 1.1342000961
H  -0.1446900070 2.0929501057 -0.5646800399
H  -2.5191502571 1.2613201141 0.4819800258
H  -2.0627501011 0.8347600698 -1.1786900759
H  -2.5189402103 -1.3414300680 -0.1755800098
H  -1.6919901371 -0.8744100928 1.3243901730
H  -0.4386400282 -1.4480102062 -1.3951201439
H  0.0694300011 -2.0452201366 0.2019400150
