14

C  -1.6215301752 0.6742200255 0.6257600188
C  -0.9716600776 -0.3129700124 -0.3212200105
C  0.0820400044 -1.2463101149 0.0632200092
O  1.3460001945 -1.1339100599 -0.6012900472
C  1.1043101549 -0.2421500236 0.4966400266
C  0.7480300665 1.1565901041 0.1626900136
N  -0.6109000444 1.0491501093 -0.3598700166
H  -2.6310102940 0.9984200597 0.4077700377
H  -1.3479400873 0.6725100279 1.6727501154
H  -1.6033000946 -0.6527300477 -1.1389901638
H  -0.1192900091 -2.1033802032 0.6865000725
H  1.6738600731 -0.3743800223 1.4026300907
H  0.7908400893 1.8098502159 1.0413501263
H  1.4209901094 1.5604201555 -0.6008200645
