12

C  1.4748401642 -0.4453900456 -0.3268500268
N  2.7224102020 -0.2474100143 -0.0616700053
N  3.0501801968 1.0949400663 -0.2080000192
C  4.2847504616 1.2973400354 0.1236700118
C  4.8871006966 2.6645102501 0.0385000035
C  5.3640904427 3.0751302242 1.3563400507
N  5.7632703781 3.4030201435 2.3976101875
H  1.0542401075 -1.4601701498 -0.2569000125
H  0.7865300775 0.3631100357 -0.6269800663
H  4.9407401085 0.4736200273 0.4616000354
H  4.1491904259 3.3747501373 -0.3475500345
H  5.7215805054 2.6186203957 -0.6685000658
