17

N  0.7483200431 0.0219400022 0.0747800022
C  2.2011001110 0.0246900022 0.1912900209
C  3.0545802116 -0.8424700499 -0.6936700344
C  2.6017100811 -1.4346901178 -1.9892001152
N  2.8856101036 -0.3698500097 -2.9690701962
C  2.6206500530 0.9061000943 -2.2763900757
C  3.0665903091 0.6379500628 -0.8753600717
H  0.3504100144 0.8879100680 0.4362900257
H  0.3382200301 -0.7320400476 0.6239200234
H  2.5565102100 0.1467800140 1.2139800787
H  3.9325404167 -1.3195000887 -0.2806300223
H  3.1608302593 -2.3411700726 -2.2395303249
H  1.5345101357 -1.6784101725 -1.9838100672
H  3.8827102184 -0.4028400481 -3.1760504246
H  3.1941702366 1.7158501148 -2.7382800579
H  1.5576000214 1.1609400511 -2.3329200745
H  3.9525501728 1.1867100000 -0.5885700583
