15

N  0.9926900268 -0.0871600062 -0.6087200642
C  2.4127202034 0.0361500010 -0.2449900210
C  3.2569701672 -0.8517300487 -1.1887400150
O  2.8589000702 -0.6604200602 -2.5505602360
C  2.7947301865 1.4842801094 -0.3693500161
C  3.2507703304 2.2418901920 0.6375800967
H  0.4498700202 0.4932900369 0.0321900025
H  0.6908200383 -1.0453901291 -0.4306700528
H  2.5568201542 -0.3067800403 0.7863900661
H  3.1000802517 -1.9095401764 -0.9510300756
H  4.3267803192 -0.6347500682 -1.1047899723
H  1.9197602272 -0.3848000169 -2.4917902946
H  2.6968603134 1.9314301014 -1.3580001593
H  3.3746101856 1.8501901627 1.6420401335
H  3.5125002861 3.2825202942 0.4692400396
