13

O  1.0555200577 0.2708200216 -0.7231400013
C  2.1301200390 0.1321300119 -0.1472800076
C  3.1433303356 1.2205200195 0.0073900004
C  3.6333303452 1.3277800083 1.4396700859
N  3.8144404888 2.7694404125 1.5692900419
N  2.9948303699 3.4548101425 0.7336700559
C  2.6147601604 2.6040003300 -0.1644800156
H  2.4363203049 -0.8608100414 0.2256300151
H  3.9584703445 1.0588001013 -0.7049700618
H  4.5708303452 0.7877900600 1.5992801189
H  2.8911602497 0.9678000808 2.1613700390
H  3.7586903572 3.1054503918 2.5328102112
H  1.9814002514 2.8708202839 -1.0230400562
