15

C  0.8581100702 -0.2528600395 -0.0675100088
C  2.3334503174 -0.1773900092 0.1467700154
C  3.0493602753 0.9537100792 0.0509200022
C  4.5176501274 0.9353700876 0.2823700011
O  5.1415004730 -0.0821500048 0.5612100363
N  5.0989103317 2.1862101555 0.1483500153
N  6.4916605949 2.3306303024 0.3338100314
H  0.6352400780 -0.9421101213 -0.8876400590
H  0.4255100191 0.7220500708 -0.3135500252
H  0.3686200380 -0.6249400377 0.8376800418
H  2.8324100971 -1.1136800051 0.3951700032
H  2.5796201229 1.8976101875 -0.1941700131
H  4.5519804955 3.0082900524 -0.0923900083
H  6.9450101852 1.6202201843 -0.2540200353
H  6.7022004128 2.0023601055 1.2836301327
