18

C  0.6755000353 1.0214000940 -0.4344900250
C  -0.5226500630 0.2105600089 -0.0267800018
C  0.8434000611 -0.4203900397 -0.0354600027
C  1.6097301245 -0.8558500409 1.1824700832
C  1.4793301821 -0.1452300102 2.5490300655
C  1.4538600445 -1.5686800480 3.1254901886
N  0.9603601098 -2.0333700180 1.8098400831
H  0.7854000926 1.2731001377 -1.4830400944
H  1.0170600414 1.7928100824 0.2458300292
H  -1.2218101025 -0.0937100053 -0.7972200513
H  -0.9897601008 0.4244200289 0.9269200563
H  1.0431600809 -1.1293400526 -0.8341800570
H  2.6617901325 -1.0422600508 0.9208000898
H  0.5508800149 0.4129800498 2.7075400352
H  2.3263602257 0.4762900472 2.8495202065
H  2.4414701462 -1.9650001526 3.3912703991
H  0.7657501101 -1.7320401669 3.9588301182
H  1.3282600641 -2.9324500561 1.5067101717
