17

C  1.6113500595 -0.4344300330 -1.0617799759
C  2.5783503056 -0.1037700102 0.0583400019
N  3.5919003487 0.8313800693 -0.3841200173
C  4.7400107384 0.9921900630 0.3518500328
O  5.0267205238 0.3401499987 1.3453102112
N  5.5293402672 1.9777901173 -0.1870700121
C  6.8399109840 2.2183301449 0.3617700040
H  0.8459300995 -1.1337401867 -0.7127100229
H  2.1362900734 -0.8920700550 -1.9064800739
H  1.1119401455 0.4678900242 -1.4288802147
H  3.0622601509 -1.0173801184 0.4216400087
H  2.0479001999 0.3539400101 0.9008200169
H  3.2630801201 1.6838901043 -0.8130500317
H  5.4225502014 2.0977101326 -1.1831501722
H  6.7818803787 2.3055002689 1.4504001141
H  7.2317605019 3.1437103748 -0.0669500008
H  7.4932203293 1.3815600872 0.0984900072
