16

C  0.9035000801 -0.5452800393 0.1521800160
C  2.3534402847 -0.0753600001 0.0584300049
C  2.9974400997 -0.5212600231 -1.2552201748
N  2.4611802101 1.3717300892 0.2563000023
O  1.7246701717 2.1103701591 -0.7102200389
C  3.6466302872 1.9809701443 0.6129000187
O  3.9442400932 3.1316204071 0.3080500364
H  0.4546400309 -0.2291300148 1.1001400948
H  0.8449100256 -1.6373502016 0.0969400033
H  0.2922900319 -0.1333100051 -0.6580800414
H  2.9159603119 -0.5434600115 0.8763200641
H  2.4885101318 -0.0815000087 -2.1196603775
H  2.9575901031 -1.6107501984 -1.3567900658
H  4.0483803749 -0.2166300118 -1.2999300957
H  2.2371201515 2.9461202621 -0.7707000971
H  4.3044705391 1.3294600248 1.2102900743
