17

C  2.0006902218 -0.2590400279 -1.3572500944
C  2.5512402058 0.2268200070 -0.0257700030
C  3.4308803082 1.4644201994 -0.1723400056
O  2.6644303799 2.5577802658 -0.6958300471
C  3.0620703697 3.6761403084 0.0931700096
C  3.3446602821 3.0608003139 1.4360600710
O  3.9731802940 1.8220801353 1.1080601215
H  1.3982201815 -1.1605501175 -1.2100100517
H  2.8124501705 -0.5026500225 -2.0494701862
H  1.3644901514 0.4982200265 -1.8247401714
H  3.1233303547 -0.5764300227 0.4549700320
H  1.7101000547 0.4500600398 0.6435700655
H  4.2684602737 1.2659201622 -0.8500800729
H  3.9657902718 4.1053304672 -0.3526500463
H  2.2747602463 4.4331903458 0.1194900125
H  3.9962501526 3.6713602543 2.0661301613
H  2.4197502136 2.8378202915 1.9792301655
