16

C  0.9464600682 -0.1194400042 -0.1022500098
C  2.4594900608 0.0029200001 0.1036000103
C  2.8686301708 -0.7465700507 1.3747200966
O  3.1068401337 -0.6553800106 -0.9872600436
C  2.8681602478 1.4587401152 0.0532000065
C  3.5106003284 2.1621701717 0.9967500567
H  0.6354700923 0.3398600221 -1.0483001471
H  0.3874000311 0.3555600047 0.7112000585
H  0.6452300549 -1.1718701124 -0.1615200043
H  2.4002802372 -0.3226100206 2.2693402767
H  3.9568302631 -0.7353800535 1.5083101988
H  2.5841500759 -1.8036402464 1.3095600605
H  2.9128401279 -0.1548900157 -1.7964001894
H  2.6018800735 1.9900600910 -0.8597400784
H  3.8230903149 1.7264201641 1.9397801161
H  3.7493104935 3.2097201347 0.8369401097
