15

C  0.9438600540 0.0609600022 -0.0063500004
C  2.4271299839 0.0343200043 -0.0023500002
C  3.2797203064 1.0808600187 0.0030800002
C  4.6480302811 0.5936200619 0.0054500005
C  4.6456604004 -0.7508500218 0.0015900001
C  3.2544302940 -1.1664700508 -0.0034500002
C  2.8387501240 -2.4361500740 -0.0081500011
H  0.5646900535 1.0883501768 -0.0024400002
H  0.5447600484 -0.4444600344 0.8789200783
H  0.5498200655 -0.4359200299 -0.8986900449
H  3.0125501156 2.1263802052 0.0053500002
H  5.5182104111 1.2312601805 0.0096500004
H  5.5036201477 -1.4026401043 0.0021000002
H  1.7845902443 -2.6899902821 -0.0117600011
H  3.5449202061 -3.2598502636 -0.0084800012
