17

C  1.2002501488 -0.2200500220 -0.5381300449
C  2.6791000366 -0.2448000312 -0.1775100082
C  3.1383402348 1.0472900867 0.5060400367
O  2.3969600201 1.2352101803 1.7107501030
C  4.6120204926 1.0051699877 0.7986700535
C  5.2248101234 1.7034500837 1.9865101576
O  4.9701504707 0.2890500128 1.9905002117
H  0.9205600619 -1.1497501135 -1.0441100597
H  0.9752800465 0.6137000322 -1.2105602026
H  0.5738100410 -0.1230200082 0.3540000319
H  3.2685701847 -0.4164800346 -1.0861500502
H  2.8559901714 -1.1000401974 0.4868800342
H  2.9319601059 1.9052500725 -0.1428300142
H  2.7328503132 0.5661800504 2.3362500668
H  5.2215104103 0.8706100583 -0.0854400024
H  4.5993304253 2.3312003613 2.6095101833
H  6.2574205399 2.0224301815 1.9201201200
