19

C  2.6325299740 -0.4920600355 1.5106400251
C  2.7757501602 0.0072700004 0.0813700110
N  3.3101701736 1.3699601889 0.0624400042
C  2.3087801933 2.4335501194 0.0865900069
C  4.6647000313 1.6574600935 0.1580600142
C  5.1206007004 3.1046903133 0.2149000168
N  5.6089901924 0.7788800597 0.2178200185
H  2.2129802704 -1.5022901297 1.5193201303
H  1.9685901403 0.1580200195 2.0892901421
H  3.5999703407 -0.5206200480 2.0212402344
H  1.7969301939 -0.0273000021 -0.4137900174
H  3.4115903378 -0.6718800664 -0.4979600310
H  1.2862900496 2.0407102108 0.0915100053
H  2.4087803364 3.0688002110 -0.7987000942
H  2.4205801487 3.0487902164 0.9847400784
H  4.7089600563 3.6639404297 -0.6295000315
H  6.2125902176 3.1671903133 0.1711300164
H  4.7844204903 3.5558702946 1.1526801586
H  5.2292804718 -0.1636500210 0.1808600128
