16

C  1.3236300945 0.2745299935 0.0784700066
C  2.8182802200 0.0115100015 -0.1185400113
C  3.0266604424 -0.7792600393 -1.3496801853
C  3.1986801624 -1.4243201017 -2.3491301537
N  3.5171000957 1.3030600548 -0.2305800170
C  3.9562001228 1.8554002047 1.0488600731
C  4.9412302971 1.2339200974 0.0941700041
H  1.1382300854 0.8369900584 1.0002701283
H  0.7690800428 -0.6685800552 0.1483000070
H  0.8974800706 0.8426400423 -0.7573400736
H  3.1746602058 -0.5802700520 0.7361300588
H  3.3522803783 -1.9871701002 -3.2401401997
H  3.7126302719 1.3247801065 1.9608601332
H  3.9351403713 2.9358701706 1.1247200966
H  5.5825700760 1.8920000792 -0.4793300331
H  5.3725805283 0.2719500065 0.3424800336
