21

C  3.0087602139 -0.8165700436 -1.2353800535
C  2.5076100826 0.0416500010 -0.0776400045
C  3.0248601437 1.5066201687 -0.0615300052
C  2.5057899952 2.2658700943 -1.2995800972
C  2.4467301369 2.2037501335 1.1888900995
C  4.5429401398 1.5165700912 0.0753400028
C  5.4375400543 2.0813300610 -0.7481100559
H  2.5953500271 -1.8278402090 -1.1525701284
H  4.0995903015 -0.9060400724 -1.2303301096
H  2.6967701912 -0.4137800336 -2.2035501003
H  2.7871601582 -0.4584900141 0.8590201139
H  1.4103600979 0.0430800021 -0.1045900062
H  2.9134402275 1.8635401726 -2.2332203388
H  2.7708401680 3.3293201923 -1.2561401129
H  1.4129800797 2.2066802979 -1.3657801151
H  2.7515501976 1.6949100494 2.1115400791
H  1.3505201340 2.2129802704 1.1656801701
H  2.7854402065 3.2447202206 1.2587201595
H  4.9349408150 0.9972600937 0.9510700703
H  5.1526503563 2.6191802025 -1.6447401047
H  6.4998908043 2.0141601562 -0.5339300632
