17

C  1.0912899971 1.6383200884 1.3780701160
O  2.4938702583 1.8314801455 1.2439401150
C  2.9784903526 1.3186900616 0.0035400002
C  4.4892306328 1.5132201910 -0.0731200054
C  4.8754506111 2.9902603626 -0.0260400027
N  6.3208503723 3.1405301094 -0.1862600148
H  0.7749701142 2.0687201023 2.3315002918
H  0.8514600396 0.5709300041 1.3789401054
H  0.5548099875 2.1448299885 0.5699700117
H  2.4856901169 1.8370500803 -0.8274000883
H  2.7469701767 0.2492700070 -0.0627600029
H  4.8593406677 1.0566300154 -0.9989100695
H  4.9631500244 0.9908800721 0.7674000859
H  4.5717606544 3.4395501614 0.9256300926
H  4.3722805977 3.5380501747 -0.8299700618
H  6.7938704491 2.6643903255 0.5816100836
H  6.5634503365 4.1265902519 -0.0956300050
