17

C  3.2664301395 -0.7965500355 -1.3383901119
C  3.0282201767 -0.1669900119 0.0253100023
C  3.1187701225 1.3574900627 0.0054500005
O  2.6882200241 1.8566602468 1.2685601711
C  4.5402302742 1.8186801672 -0.2763300240
N  5.3644304276 2.0368702412 0.7022700906
N  6.5921201706 2.4115002155 0.2786200047
H  3.1388401985 -1.8820002079 -1.2788101435
H  4.2802805901 -0.5988300443 -1.6986501217
H  2.5559902191 -0.4121700227 -2.0768201351
H  3.7475001812 -0.5772100687 0.7459700704
H  2.0371003151 -0.4647100270 0.3899600506
H  2.4605801105 1.7776101828 -0.7617200613
H  3.4931204319 1.8969300985 1.8243000507
H  4.8320302963 1.9122201204 -1.3383401632
H  7.1242103577 2.7843000889 1.0706801414
H  7.1346306801 1.5998800993 -0.0306300037
