13

C  0.9577800632 -1.0937200785 -0.0171500016
C  2.0631701946 -0.0542900041 0.0201900005
O  1.4570400715 1.2349500656 0.1190200076
C  2.2898802757 2.3143701553 0.1694200188
C  3.6262903214 2.3542003632 0.1417200118
H  1.3733401299 -2.1022303104 -0.0954600126
H  0.2918800414 -0.9182800651 -0.8686600924
H  0.3419100344 -1.0343000889 0.8865400553
H  2.6559400558 -0.1231000125 -0.8987600803
H  2.7031502724 -0.2384500057 0.8908100724
H  1.6940701008 3.2193903923 0.2413000166
H  4.2432503700 1.4665302038 0.0708500072
H  4.1406702995 3.3081603050 0.1915300190
