14

C  0.9937800765 -0.0183500014 0.0715800077
C  2.5200002193 0.0000000000 0.0000000000
C  3.0011103153 -0.7552200556 -1.2483000755
O  4.4073200226 -0.9990100861 -1.1975401640
C  3.0020201206 1.3611700535 0.0000000000
C  3.3993003368 2.4830701351 0.0000000000
H  0.6353700161 0.5033300519 0.9666200280
H  0.6176400185 -1.0465000868 0.1119300127
H  0.5442800522 0.4723700583 -0.7999200225
H  2.9160201550 -0.5107000470 0.8869500756
H  2.7815601826 -0.2060400248 -2.1716103554
H  2.5136702061 -1.7337301970 -1.3161801100
H  4.8451604843 -0.1316800117 -1.1295601130
H  3.7511203289 3.4894602299 0.0049900003
