15

C  0.8877500296 -0.0404900014 -0.0065800003
C  2.3723900318 -0.0033900004 -0.0061300006
C  3.1966700554 1.1041201353 -0.0166700017
N  2.9228003025 2.4170901775 -0.0321000032
N  4.4957504272 0.6731000543 -0.0148000009
C  4.5298404694 -0.6955300570 -0.0024800003
C  3.2288501263 -1.1441500187 0.0027800002
H  0.4536100328 0.9637901187 0.0083900001
H  0.5209700465 -0.5788100958 0.8733900189
H  0.5211600661 -0.5532900095 -0.9017100930
H  3.6268403530 3.1428701878 0.0493100025
H  1.9675801992 2.7555501461 0.0359300040
H  5.3028707504 1.2782500982 -0.0261800010
H  5.4708099365 -1.2283400297 -0.0008300001
H  2.9212801456 -2.1819701195 0.0102900006
