17

C  1.1802600622 0.2508100271 0.1171500087
O  2.6014103889 0.2419400215 0.1357800215
C  3.1350803375 1.5612201691 0.0480600037
C  4.6242403984 1.4642001390 0.1019600034
C  5.4453802109 1.4496500492 -1.1632000208
C  5.4658503532 2.6559901237 -0.2668000162
O  6.6596503258 2.8487901688 0.5028500557
H  0.8283200860 -0.7766700387 0.2401600182
H  0.8149900436 0.6338800788 -0.8397700191
H  0.7868000865 0.8546301126 0.9405601025
H  2.7799403667 2.1556503773 0.8972300887
H  2.7973902225 2.0336701870 -0.8820601106
H  4.9506807327 0.8470200896 0.9305800796
H  4.9336004257 1.5381200314 -2.1148803234
H  6.3190703392 0.8115000129 -1.1958200932
H  4.9627699852 3.5486803055 -0.6249700785
H  7.0302305222 2.0109202862 0.8285500407
