15

C  0.5903300643 2.3485403061 -0.0382800028
N  2.0366201401 2.5409803391 -0.1031500101
C  2.6912901402 1.4358800650 -0.0745400041
N  4.0437302589 1.3307101727 -0.1322000176
C  4.9245905876 2.4809300900 -0.1404100209
C  6.3699102402 2.0313501358 -0.1805400103
O  6.7284107208 0.8563300371 -0.1216700077
H  0.0941100046 3.3082003593 -0.2129200250
H  0.2864400148 1.9887001514 0.9503000975
H  0.2387100160 1.6507800817 -0.8064300418
H  2.1981801987 0.4488500357 -0.0018200001
H  4.4976801872 0.4274800420 -0.0098600006
H  4.7857704163 3.0835201740 0.7626900673
H  4.7392802238 3.0999302864 -1.0235800743
H  7.1114902496 2.8451502323 -0.2500000298
