12

O  1.1599401236 -0.0117600011 0.4653400183
C  2.3390402794 0.0238900017 0.1402900219
C  3.1409201622 1.2760500908 0.0394800045
C  4.2911901474 0.7493800521 -0.7873901129
O  4.4870300293 -0.6088900566 -0.3746700287
C  3.1805801392 -1.1817300320 -0.1761400104
H  3.4630601406 1.5654001236 1.0435000658
H  2.6029000282 2.0858502388 -0.4557100236
H  4.0562100410 0.7560901046 -1.8582201004
H  5.2114806175 1.3184500933 -0.6293500066
H  2.8462502956 -1.6581602097 -1.1000000238
H  3.2174901962 -1.8784002066 0.6623100638
