20

C  2.4830701351 -0.3267300129 1.3956000805
C  2.5364704132 0.2489500195 -0.0125600016
C  2.7864003181 1.7442500591 -0.0100200009
C  1.5592401028 2.5917100906 0.1871600151
C  4.0378704071 2.2151801586 -0.1899000257
C  4.5097103119 3.6328301430 -0.2267300189
N  5.4775404930 3.8389403820 0.8411200643
H  2.3052601814 -1.4059100151 1.3543400764
H  1.6789600849 0.1244700104 1.9849301577
H  3.4277703762 -0.1614500135 1.9243202209
H  1.5987200737 0.0323400050 -0.5383599997
H  3.3219802380 -0.2696600258 -0.5767000318
H  0.8317700624 2.3877401352 -0.6060600281
H  1.7612801790 3.6643402576 0.1704000086
H  1.0904601812 2.3654701710 1.1501700878
H  4.8416905403 1.4909701347 -0.3280400336
H  3.7013003826 4.3599405289 -0.1270300150
H  4.9943304062 3.8189702034 -1.1911700964
H  5.0064401627 3.7008602619 1.7344502211
H  5.7797608376 4.8109102249 0.8300100565
