17

C  0.9708400369 -0.0008700001 0.0918300003
C  2.4913902283 -0.0042700004 -0.0359500013
O  3.0420203209 -0.0073700007 1.2819801569
C  2.9917201996 -1.2368800640 -0.8207100630
C  3.4661202431 -0.6688100696 -2.1198601723
C  3.4689600468 0.6652200818 -2.1171600819
C  2.9976203442 1.2303301096 -0.8167200685
H  0.4794900417 0.0023800002 -0.8873500824
H  0.6287300587 0.8769300580 0.6528900266
H  0.6252000332 -0.8794800639 0.6489900351
H  4.0112905502 -0.0088900011 1.1975401640
H  2.1946601868 -1.9680801630 -0.9949700832
H  3.8179602623 -1.7474901676 -0.3117700219
H  3.7774603367 -1.2811001539 -2.9551601410
H  3.7834901810 1.2794001102 -2.9500901699
H  3.8259501457 1.7358200550 -0.3043900132
H  2.2027301788 1.9657101631 -0.9876200557
