14

C  3.1790401936 -1.5574301481 0.2674900293
C  2.5592100620 -0.2493900061 -0.1414200217
O  1.4138001204 -0.1822400093 -0.5869600773
N  3.2953102589 0.9042000771 -0.0159500018
C  4.5918202400 1.0700701475 0.4360500276
C  5.0575604439 2.5040900707 0.4073700309
O  5.3190107346 0.1744000167 0.8496500850
H  4.0619802475 -1.7642002106 -0.3428600132
H  2.4569301605 -2.3627600670 0.1072500050
H  3.4372901917 -1.5378800631 1.3293701410
H  2.7805602551 1.7174201012 -0.3218000233
H  4.3715205193 3.1464402676 -0.1512100250
H  6.0378503799 2.5504601002 -0.0747000054
H  5.1325502396 2.8744003773 1.4331901073
