15

O  3.1737000942 3.0792303085 1.9781901836
C  2.5011901855 2.7659301758 1.0020000935
C  2.9521903992 1.8227901459 -0.0872200057
C  4.4070205688 1.3709300756 0.0391199999
C  5.4440207481 2.4822602272 -0.1490000039
C  5.3666706085 3.1042003632 -1.4806702137
C  5.3056406975 3.6277801991 -2.5580501556
H  1.4743201733 3.1539301872 0.8832100630
H  2.7687404156 2.3069500923 -1.0515401363
H  2.2972900867 0.9455900788 -0.0331300013
H  4.5875902176 0.5829200745 -0.7032800317
H  4.5619802475 0.9144600630 1.0247501135
H  6.4433002472 2.0498900414 -0.0175200030
H  5.3369302750 3.2500004768 0.6238100529
H  5.2555603981 4.1018204689 -3.5124301910
