14

C  3.4330503941 -0.7465600371 -1.5552201271
S  2.9975402355 -0.0798100084 0.0317800045
O  1.5551800728 -0.1722100079 0.1532400101
O  3.8586301804 -0.7052800655 1.0189501047
C  3.4179000854 1.5934700966 -0.1451100111
C  4.6908001900 1.9772500992 -0.0054700007
N  5.1775703430 3.2532103062 -0.1396699995
H  4.5070905685 -0.6313900352 -1.7129200697
H  2.8679201603 -0.2240100205 -2.3295702934
H  3.1718003750 -1.8071801662 -1.5593100786
H  2.6180601120 2.2811300755 -0.3772800267
H  5.4747405052 1.2565100193 0.2323300093
H  4.4781603813 3.9890303612 -0.0597800054
H  6.0017204285 3.4425301552 0.4300300479
