13

O  0.8999800682 0.0633800030 0.3425000310
C  2.1174302101 -0.0038300003 0.1491400152
C  2.9514303207 1.2453001738 -0.0950500071
O  4.3501305580 1.2010000944 0.1287200004
C  4.9273104668 -0.0308100022 0.0606700033
C  4.2904701233 -1.1993001699 -0.0046700002
C  2.8055303097 -1.3395301104 0.0083500007
H  2.5539703369 2.0312600136 0.5581900477
H  2.7838301659 1.5570200682 -1.1323900223
H  6.0090703964 0.0539400019 0.0910900086
H  4.8725500107 -2.1165902615 -0.0450100042
H  2.4726800919 -1.8094900846 -0.9228301048
H  2.5096802711 -1.9671601057 0.8556100726
