16

O  1.9885301590 -1.2020800114 -0.7789000869
C  2.0607800484 0.2082700133 -0.6027200222
C  2.9925303459 0.5362200737 0.5613400340
C  4.4348101616 0.2937500179 0.2119800150
C  5.3320903778 1.4339901209 -0.1948200017
C  5.5176105499 0.7727500796 1.1427100897
H  1.3887401819 -1.3651001453 -1.5277101994
H  1.0511900187 0.5707401037 -0.3852900565
H  2.4110202789 0.6625699997 -1.5347001553
H  2.7367303371 -0.0890300050 1.4253301620
H  2.8468801975 1.5838600397 0.8525500894
H  4.5865802765 -0.6757400632 -0.2523400187
H  4.9315705299 2.4409203529 -0.2069200277
H  6.0764102936 1.2447601557 -0.9604200721
H  6.3824806213 0.1333400011 1.2797499895
H  5.2320103645 1.3264000416 2.0304100513
