15

C  0.7759000659 0.3538700342 -0.1175400093
N  2.2036600113 0.1988000125 0.0717100054
C  3.1029303074 1.2397600412 0.0601000041
C  4.4467902184 1.2094000578 0.0000000000
C  5.2576704025 -0.0525400043 -0.0566500016
C  5.1497902870 2.4270403385 0.0000000000
N  5.7252902985 3.4238402843 0.0000000000
H  0.2686400115 -0.5884400606 0.1094500124
H  0.5548300147 0.6247200370 -1.1543500423
H  0.3736700416 1.1255201101 0.5463900566
H  2.5721502304 -0.7173800468 -0.1695600152
H  2.5970201492 2.2063202858 0.1163000092
H  4.6507005692 -0.9594500661 0.0156700015
H  5.9774603844 -0.0802400038 0.7696601152
H  5.8159704208 -0.1034500077 -0.9983301163
