17

C  1.1418100595 0.2292200178 0.0860500038
C  2.6331000328 -0.0492500030 -0.0478100032
C  2.9340403080 -0.7606900930 -1.3025200367
C  3.1772701740 -1.3479800224 -2.3207602501
C  3.4244403839 1.2273100615 -0.1521800160
C  3.8355503082 1.9639800787 1.1002200842
C  4.8756203651 1.2738400698 0.2639100254
H  0.9327900410 0.7884400487 1.0043801069
H  0.5699000359 -0.7046700716 0.1183400080
H  0.7630500793 0.8223500252 -0.7547000647
H  2.9674003124 -0.6477400661 0.8079300523
H  3.3955101967 -1.8680300713 -3.2256202698
H  3.1270501614 1.8375002146 -1.0008400679
H  3.5941102505 1.5318800211 2.0647501945
H  3.8074703217 3.0477902889 1.0822601318
H  5.5484304428 1.8878000975 -0.3242500126
H  5.3319602013 0.3728200197 0.6581200361
