15

C  0.9618200660 0.0296600014 -0.0444000028
C  2.4451801777 0.0634800047 -0.2165300101
C  3.2218401432 1.0632700920 0.2291800231
S  4.9403405190 1.0278301239 -0.0320400037
C  5.4972605705 -0.0224900022 1.2866400480
O  5.2365603447 0.3519300520 -1.2815500498
O  5.4622802734 2.3553903103 0.2293700278
H  0.6725400686 -0.8629701138 0.5180300474
H  0.4738300443 -0.0063400003 -1.0231001377
H  0.5878700018 0.9075000882 0.4918000400
H  2.8835000992 -0.7755800486 -0.7562300563
H  2.8277401924 1.9263201952 0.7482200861
H  5.2012805939 0.4157100320 2.2418601513
H  6.5864105225 -0.0864000022 1.2309000492
H  5.0631103516 -1.0166300535 1.1636002064
