12

C  1.0026201010 0.0080600008 -0.0047800005
C  2.5084700584 0.0313100033 -0.0020300001
C  3.2269203663 -1.2953600883 -0.0061500007
N  3.1092801094 1.1839301586 0.0007600000
O  4.5001006126 1.0315999985 0.0005000000
H  0.5987900496 1.0242100954 0.0037200002
H  0.6477100253 -0.5252900720 0.8812800646
H  0.6511200666 -0.5091800690 -0.9016800523
H  2.5071802139 -2.1184000969 0.0032900001
H  3.8608500957 -1.3742400408 0.8813200593
H  3.8420302868 -1.3775901794 -0.9064500332
H  4.8104400635 1.9562801123 0.0028800003
