18

C  0.7312700748 1.2631000280 -0.2221200168
C  -0.7278000712 1.2610000372 0.2268900126
C  -1.4564501047 0.0014300001 -0.2335500270
C  -0.7288200855 -1.2635802031 0.2125100195
C  0.7300700545 -1.2620301247 -0.2364100218
C  1.4593400955 -0.0025900002 0.2231400162
H  0.7753200531 1.3437801600 -1.3153800964
H  1.2408901453 2.1442303658 0.1838600039
H  -1.2367200851 2.1472101212 -0.1688300222
H  -0.7721200585 1.3285601139 1.3209900856
H  -2.4773800373 -0.0003800000 0.1642000079
H  -1.5391601324 0.0077000004 -1.3273401260
H  -0.7733300328 -1.3437801600 1.3058199883
H  -1.2385600805 -2.1449003220 -0.1933600157
H  1.2391000986 -2.1482903957 0.1595700085
H  0.7744600773 -1.3302501440 -1.3304001093
H  1.5404801369 -0.0087200003 1.3160700798
H  2.4799401760 -0.0005500001 -0.1755100191
