17

C  2.3584601879 -0.4963200390 -1.4439400434
C  2.4756102562 0.0565800034 -0.0322600007
C  3.2591602802 1.3602701426 -0.0391100012
C  2.5526001453 2.6230003834 -0.5869200826
C  3.1992602348 3.3325402737 0.6142100096
N  3.2478003502 2.0197601318 1.2948400974
H  1.8128601313 -1.4449101686 -1.4372700453
H  3.3474502563 -0.6728000641 -1.8795000315
H  1.8239001036 0.2004600018 -2.0977101326
H  2.9856402874 -0.6820900440 0.5971800685
H  1.4711601734 0.1996200085 0.3839700222
H  4.2773904800 1.2347800732 -0.4341700375
H  1.4570301771 2.5939500332 -0.5492500067
H  2.8717503548 2.9644701481 -1.5747901201
H  4.1875104904 3.7582302094 0.4053200483
H  2.5809402466 4.0853800774 1.1096900702
H  4.0820002556 1.8605501652 1.8569900990
