17

C  1.1813400984 -0.1535600126 0.1195000038
C  2.5340301991 0.4862400293 -0.0797100067
C  3.7331802845 -0.4467000365 -0.1612300128
C  4.0125503540 -0.7894000411 -1.6175100803
O  4.6924104691 0.2768800259 -2.2714602947
N  2.5748801231 1.7795500755 -0.2325000167
N  3.7881104946 2.3368701935 -0.4271800220
H  0.3971300423 0.6077300310 0.1668600142
H  1.1825101376 -0.7232300639 1.0521401167
H  0.9734700918 -0.8273400664 -0.7150300145
H  3.4891703129 -1.3597000837 0.3932800293
H  4.6039104462 0.0114300009 0.3160200417
H  3.0934603214 -1.0022701025 -2.1734702587
H  4.6586799622 -1.6703801155 -1.6785300970
H  4.2988100052 1.1111000776 -1.9318001270
H  3.6626203060 3.3109104633 -0.7230500579
H  4.2847299576 2.4211902618 0.4659800231
