12

C  0.9598700404 0.0403899997 0.0155300014
C  2.4371101856 0.0114800008 -0.0494600050
C  3.3087003231 1.0273801088 -0.1057100147
N  4.6558604240 0.7665300369 -0.1802100092
S  4.9157900810 -0.8804000616 -0.0002000000
C  3.1896603107 -1.2593400478 -0.0074100005
O  2.7079403400 -2.3771102428 0.0455100015
H  0.5806100368 1.0673401356 0.0274900012
H  0.6036100388 -0.4596300125 0.9216600657
H  0.5281700492 -0.4675500393 -0.8525700569
H  3.0253503323 2.0748600960 -0.1010900065
H  5.2614703178 1.4332501888 0.2961300015
