19

C  2.0040800571 -0.2306900173 -1.5083000660
O  2.2227900028 0.1844700277 -0.1670700014
C  2.9675502777 1.3901400566 -0.0732200071
C  2.1701502800 2.6249101162 -0.4763300419
C  2.9365203381 3.7657101154 0.1741800159
C  3.5059404373 3.1867003441 1.4683200121
C  3.2978904247 1.6766501665 1.3884001970
H  1.4881401062 -1.1945700645 -1.4877301455
H  2.9555602074 -0.3572700322 -2.0334901810
H  1.3711700439 0.4857500494 -2.0392801762
H  3.8970801830 1.3126201630 -0.6522700191
H  1.1453701258 2.5686800480 -0.0893500075
H  2.1025900841 2.7437903881 -1.5620701313
H  3.7580001354 4.0845704079 -0.4783800542
H  2.3006801605 4.6375203133 0.3558400273
H  4.5687203407 3.4354202747 1.5623000860
H  2.9947803020 3.5975003242 2.3453600407
H  4.1805405617 1.1206301451 1.7212001085
H  2.4701001644 1.3717800379 2.0409600735
