19

C  2.3996801376 -1.0366700888 -0.6576100588
N  2.1029400826 0.2687300146 -0.0803500041
C  3.2885003090 1.1393200159 -0.0490500033
C  3.4240903854 2.2390902042 -1.0608100891
C  3.1180400848 2.5819003582 0.3701500297
N  4.1545004845 3.2367103100 1.1798900366
C  4.0809502602 2.8449702263 2.5808403492
H  1.4817700386 -1.6291002035 -0.7133800387
H  3.1203303337 -1.5846201181 -0.0428100042
H  2.7983500957 -0.9399101138 -1.6720001698
H  1.7452601194 0.1361800134 0.8656400442
H  4.2091002464 0.6580800414 0.2764700353
H  2.6332101822 2.3657503128 -1.7901102304
H  4.4151000977 2.4511401653 -1.4407900572
H  2.1030700207 2.9198100567 0.5701700449
H  4.0627303123 4.2502803802 1.1094300747
H  4.2665100098 1.7724500895 2.6993401051
H  3.1046602726 3.0862500668 3.0145602226
H  4.8483905792 3.3765203953 3.1523103714
