15

C  1.0564600229 -0.0305700041 0.1278300136
C  2.3939502239 -0.0096000005 0.0226700008
C  3.2340202332 1.2394400835 -0.0789100081
N  4.3932003975 0.7432900667 -0.7728200555
C  4.5128903389 -0.6062000990 -0.6720401049
N  5.5941805840 -1.2510801554 -0.9416600466
C  3.2463102341 -1.2455199957 -0.1521800160
H  0.5074600577 -0.9674900770 0.1414300203
H  0.4793700278 0.8863200545 0.1955800205
H  3.5109403133 1.6003601551 0.9165000319
H  2.7436702251 2.0338101387 -0.6475100517
H  5.2522401810 1.2766600847 -0.7730300426
H  5.4557805061 -2.2545702457 -0.7843100429
H  2.8440704346 -1.9462001324 -0.8880000710
H  3.4513902664 -1.7387101650 0.8019201159
