11

C  2.1561801434 -0.9111600518 -1.1647201777
C  2.1554801464 0.1249900162 -0.3159800172
C  3.2520303726 1.0747600794 -0.1130300090
C  3.4257302284 2.2022702694 -1.0994300842
O  3.0086402893 2.4440903664 0.2482400090
H  1.2926300764 -1.5639901161 -1.2445801497
H  3.0132701397 -1.1270900965 -1.7941402197
H  1.2677100897 0.2927100062 0.2919500172
H  4.1513800621 0.6290400624 0.2999600172
H  2.6888501644 2.3425500393 -1.8805402517
H  4.4325404167 2.4923102856 -1.3718001842
