17

C  3.0917603970 -1.1730401516 -0.4539600313
C  2.4655504227 0.0667300001 0.1638800204
C  3.4502902031 1.1910800934 0.2606700063
N  3.6815602779 2.0715200901 -0.8834100366
C  2.9740600586 2.6244301796 0.2700900137
C  3.6585502625 3.6393404007 1.1176201105
H  2.3614900112 -1.9868801832 -0.4988100529
H  3.9495201111 -1.5148301125 0.1350300163
H  3.4429402351 -0.9709500670 -1.4707901478
H  2.1068701744 -0.1744000167 1.1709901094
H  1.5885601044 0.3597100079 -0.4253200293
H  4.3250303268 0.9371400476 0.8506200314
H  3.0319302082 1.8685802221 -1.6449600458
H  1.9202702045 2.8352203369 0.1383700073
H  4.7312302589 3.4425601959 1.2192801237
H  3.2190501690 3.6470401287 2.1198501587
H  3.5353703499 4.6372604370 0.6853800416
