13

C  1.0164700747 -0.0290400013 -0.0761900097
C  2.4880201817 0.1409300119 0.0490100048
O  3.2446103096 -0.4851000309 -0.9972400665
C  3.2708401680 0.9476701021 -0.9543401003
C  4.5958104134 1.5277501345 -0.6109600663
H  0.4998100400 0.6630499959 0.5954400301
H  0.7290900350 -1.0487700701 0.1978600174
H  0.6654700637 0.1620700210 -1.0963200331
H  2.8482003212 0.0398000032 1.0634301901
H  2.7535099983 1.4890500307 -1.7344901562
H  5.1075506210 0.9531701207 0.1679900140
H  4.4742503166 2.5545301437 -0.2523000240
H  5.2388801575 1.5495500565 -1.4961800575
