17

C  1.3235501051 0.2979100347 1.5695201159
C  1.8575801849 0.6291100383 0.1884100139
C  2.7414801121 1.8613401651 0.2214800119
C  2.0680401325 3.2077503204 0.4744500518
O  2.3428201675 4.1099705696 -0.5838800669
N  4.0231103897 1.7001901865 0.0304200016
N  4.7846302986 2.8176302910 0.0722000003
H  0.7383400798 -0.6258500814 1.5391200781
H  0.6763900518 1.0953999758 1.9472701550
H  2.1408102512 0.1659000069 2.2863001823
H  1.0318100452 0.8105100989 -0.5083100200
H  2.4359302521 -0.2190800160 -0.1957200170
H  2.4371201992 3.6288201809 1.4147500992
H  0.9848100543 3.0869102478 0.5484800339
H  3.3075301647 4.0023002625 -0.7365601063
H  5.6622405052 2.6301002502 -0.4259500206
H  5.1006903648 2.9835503101 1.0340100527
