18

C  1.3004900217 -0.2549300194 0.1826200038
N  2.7491502762 -0.1420400143 0.0711400062
C  3.1601603031 1.2733000517 0.0313800015
C  4.6994504929 1.4327300787 -0.0660000071
C  5.3810901642 1.1071701050 1.2642199993
N  5.2584805489 0.5697500706 -1.1240600348
H  1.0180801153 -1.3118101358 0.1878700107
H  0.7928000689 0.2251400203 -0.6598300338
H  0.9418000579 0.1872000098 1.1171101332
H  3.0439901352 -0.5586700439 -0.8144500256
H  2.7978701591 1.7982801199 0.9232400656
H  2.7051701546 1.7533102036 -0.8447100520
H  4.9190001488 2.4750001431 -0.3236400187
H  5.2168803215 0.0665400028 1.5653301477
H  4.9971799850 1.7526500225 2.0614602566
H  6.4631500244 1.2713601589 1.1997700930
H  5.1278505325 -0.4000200033 -0.8286401033
H  6.2687907219 0.7034100294 -1.1596000195
