13

C  -1.5161701441 0.7184600234 0.3142400384
C  -1.1790300608 -0.6204500198 -0.2879200280
C  -0.2286800295 -1.5280400515 0.3476700187
C  1.0598400831 -1.2214101553 0.5105900168
C  1.3847800493 0.1411800086 0.0572100058
N  0.5957100391 0.9847400784 -0.5320900083
N  -0.6745700836 0.6250100732 -0.8793200850
H  -2.5073301792 1.1191800833 0.1442400068
H  -1.0613701344 1.0204100609 1.2493700981
H  -1.9526001215 -1.1073600054 -0.8726000786
H  -0.5940500498 -2.4986703396 0.6682700515
H  1.8075400591 -1.8549401760 0.9601400495
H  2.4122200012 0.4702200294 0.2842099965
