15

C  1.0317701101 -0.0315300003 0.1224900112
N  2.4891500473 0.0015000001 0.0342600010
C  3.0536701679 1.1377500296 0.7799700499
C  4.4142503738 0.6488300562 1.2632300854
C  4.2035603523 -0.8321200609 1.3473801613
O  4.9206905365 -1.6368501186 1.9179100990
N  3.0800702572 -1.1243000031 0.6042300463
H  0.6372800469 -0.8738100529 -0.4565600455
H  0.6023900509 0.8813501000 -0.3043000400
H  0.6782600284 -0.1337200105 1.1550601721
H  2.4398703575 1.3928700686 1.6543900967
H  3.1417200565 2.0299701691 0.1522400230
H  5.2034006119 0.8534900546 0.5334300399
H  4.6725306511 1.0631600618 2.2405803204
H  2.7845001221 -2.0790700912 0.4330600202
