16

C  0.9707600474 -0.0131900003 0.0119300010
C  2.4867303371 0.0037000002 0.0231400020
C  3.1519303322 1.0465000868 0.9575900435
C  4.2438402176 -0.0072000003 1.2354000807
C  3.1927702427 -1.0914800167 0.8817100525
C  3.6915001869 -2.2358400822 0.1534100175
N  4.0910601616 -3.1561100483 -0.4305300415
H  0.5998000503 -0.8644101024 -0.5680800676
H  0.5792300105 0.9014000893 -0.4451300204
H  0.5593100190 -0.0884000063 1.0239400864
H  2.8781802654 0.0702100098 -1.0031000376
H  2.5610201359 1.3081401587 1.8431200981
H  3.4943103790 1.9655702114 0.4751200378
H  5.0952401161 0.0556800067 0.5464200377
H  4.6221003532 -0.0295900013 2.2612202168
H  2.6030702591 -1.3866500854 1.7612102032
