16

C  2.7092103958 -0.8478900790 -0.7186900377
O  2.4813401699 0.0409500040 0.3694500327
C  2.9546401501 1.3594000340 0.1071800068
C  2.4091801643 2.2726900578 1.1952000856
C  4.4699201584 1.4140101671 0.1465800107
N  5.1496706009 1.8162901402 -0.8791400194
O  6.5128302574 1.7602701187 -0.5672000647
H  2.2417900562 -1.8070100546 -0.4788500369
H  3.7801401615 -1.0145701170 -0.8650600910
H  2.2566702366 -0.4615700543 -1.6376000643
H  2.5910103321 1.7047501802 -0.8682600856
H  2.7278401852 1.9367301464 2.1888000965
H  1.3139501810 2.2602100372 1.1928101778
H  2.7496700287 3.3042902946 1.0584200621
H  4.9587903023 1.0916700363 1.0828900337
H  6.9311103821 2.0763201714 -1.3893800974
