20

C  1.5689700842 0.4000100195 -1.4286301136
N  3.0106301308 0.4785000384 -1.2431501150
C  3.3435201645 1.2458701134 -0.0443300009
C  4.8453402519 1.3139901161 0.1382700056
C  5.5182905197 -0.0152900014 0.3674600124
C  5.4866304398 2.5004301071 0.1258500069
C  6.9549202919 2.7522003651 0.2685800195
H  1.3485701084 -0.1870300174 -2.3256900311
H  1.1251000166 1.3923400640 -1.5587201118
H  1.0868700743 -0.0998400077 -0.5821599960
H  3.4296302795 0.9429600835 -2.0479602814
H  2.9052402973 0.7749100327 0.8438600898
H  2.9171600342 2.2538902760 -0.1175000072
H  4.9473705292 -0.6096800566 1.0893000364
H  6.5270705223 0.0798400044 0.7764700651
H  5.5833606720 -0.5782600641 -0.5689500570
H  4.8994703293 3.4066002369 -0.0213300008
H  7.5611906052 1.8469800949 0.2060600221
H  7.1565003395 3.2425203323 1.2253301144
H  7.2879805565 3.4199802876 -0.5325300097
