13

C  0.9792100787 -0.0128700007 -0.0087900013
C  2.4641702175 0.1032200083 -0.0009000000
C  3.1654002666 1.2510601282 0.0037400003
S  4.8943305016 0.9497300386 0.0131300008
C  4.6107602119 -0.8008500934 0.0110400002
N  5.5802001953 -1.6368901730 0.0167900007
N  3.2645003796 -1.0253500938 0.0029900002
H  0.4972100556 0.9706100225 -0.0062600002
H  0.6341100931 -0.5591700673 0.8748800755
H  0.6429600120 -0.5504700541 -0.9012400508
H  2.7560801506 2.2517602444 0.0020400002
H  5.2076401711 -2.5865299702 0.0144400010
H  2.8581902981 -1.9466601610 0.0011100001
