16

C  0.8949300647 -0.1682600230 0.1068800092
C  2.3792400360 0.0079200007 0.1697100103
C  3.0901103020 1.1419501305 0.0061500007
C  2.4988400936 2.5046103001 -0.2386600077
C  4.5965304375 1.1231400967 0.0872800052
O  5.1364707947 1.4803701639 -1.1757901907
H  0.6548500657 -0.9869500995 -0.5792400241
H  0.3617700040 0.7163700461 -0.2460600287
H  0.5106400251 -0.4314800203 1.0969001055
H  2.9191701412 -0.9190600514 0.3640600145
H  1.4130001068 2.5332102776 -0.1269400120
H  2.7406101227 2.8475902081 -1.2497401237
H  2.9073803425 3.2263002396 0.4770800173
H  4.9878702164 0.1365200132 0.3569800556
H  4.9534802437 1.8367401361 0.8366400599
H  4.6762104034 0.9351601005 -1.8365501165
