16

N  0.9293000698 0.0890800059 0.1491700113
C  2.3836901188 0.0870400071 -0.0629400015
C  3.0736801624 1.0479000807 0.9146100879
O  3.9827201366 -0.0062600002 1.3424701691
C  3.0698001385 -1.0091900826 0.7904800773
C  3.6730804443 -2.1203200817 0.0051000006
C  4.9823303223 -2.1768302917 -0.2637200356
H  0.4528200328 -0.6864100099 -0.3108300269
H  0.4704800546 0.9348700643 -0.1884400100
H  2.7075603008 0.1759900153 -1.1041400433
H  2.4869902134 1.4210400581 1.7604901791
H  3.6115300655 1.8763201237 0.4455600381
H  2.4559903145 -1.4176901579 1.6056700945
H  3.0065402985 -2.9037003517 -0.3415500522
H  5.6722106934 -1.4110600948 0.0809100047
H  5.3990502357 -3.0024802685 -0.8320900798
