13

O  3.0784902573 -1.1153001785 -0.3606400192
C  2.3447303772 0.0403600000 0.0343900025
C  3.2800502777 1.2287600040 0.0576000027
C  2.6803801060 2.3731703758 0.7935000658
N  2.4372301102 3.3966302872 0.0422400050
N  2.8660402298 3.0822002888 -1.2838600874
C  3.3486802578 1.8825402260 -1.2763501406
H  2.4550602436 -1.8640301228 -0.3730800152
H  1.9278502464 -0.1524300128 1.0287801027
H  1.5148701668 0.1767900139 -0.6678799987
H  4.2800402641 0.9918500781 0.4276100099
H  2.4748601913 2.3289599419 1.8712401390
H  3.7717502117 1.3722100258 -2.1515603065
