18

C  1.0011900663 -0.0536200032 0.0031300001
C  2.5200002193 0.0000000000 0.0000000000
C  3.0020201206 1.3611700535 0.0000000000
C  3.3993003368 2.4830701351 0.0000000000
C  3.8813202381 3.8442401886 0.0000000000
C  2.7228300571 4.8479900360 -0.0160600003
N  3.2030701637 6.2306804657 0.0141100008
H  0.6571400166 -1.0929800272 0.0030800002
H  0.5851000547 0.4421400130 -0.8810600638
H  0.5887900591 0.4408400357 0.8897800446
H  2.8954701424 -0.5328100920 -0.8808500171
H  2.8991401196 -0.5341100097 0.8784800768
H  4.5246300697 4.0125203133 -0.8722100854
H  4.5032200813 4.0150799751 0.8872700334
H  2.0633702278 4.6810703278 0.8440800309
H  2.1172900200 4.7055501938 -0.9188500643
H  3.7008204460 6.3995504379 0.8876900673
H  2.4017601013 6.8613505363 0.0193200018
