14

C  0.9591400623 -0.0232100021 0.2532500327
C  2.4538502693 -0.0462700054 -0.0197300017
C  2.9140303135 1.2092701197 -0.7292000651
O  4.3159704208 1.0588401556 -0.9449101090
N  4.6139106750 -0.0567100048 -1.7599201202
C  3.8331401348 -1.0780001879 -1.6332801580
O  2.7418403625 -1.1902801991 -0.8384000659
H  0.6811300516 0.8287000656 0.8818600774
H  0.6489200592 -0.9452500343 0.7577100396
H  0.3894100189 0.0284400005 -0.6818100214
H  2.9976804256 -0.1810900122 0.9221700430
H  2.7534902096 2.0996501446 -0.1134000048
H  2.4183502197 1.3564600945 -1.6964801550
H  3.9842600822 -2.0016300678 -2.2114102840
