17

C  1.3964501619 -0.6198000312 0.2288100272
C  2.9151401520 -0.5503900647 0.2555300295
C  3.4176101685 0.8370000720 -0.1490300149
C  4.9422101974 0.9306000471 -0.1247000098
O  5.4999904633 -0.0040800003 -1.0426501036
C  5.3733000755 2.3487102985 -0.4713800251
O  6.0318603516 2.6153903008 -1.4740900993
H  1.0569000244 -1.6190301180 0.5209200382
H  1.0114401579 -0.4111100435 -0.7752500772
H  0.9568800926 0.1047400087 0.9227700830
H  3.3150300980 -1.3115900755 -0.4231000543
H  3.2690801620 -0.7940500379 1.2631100416
H  2.9891901016 1.5950001478 0.5185200572
H  3.0555202961 1.0626200438 -1.1613001823
H  5.3319501877 0.6993600726 0.8717000484
H  5.8503804207 0.5184300542 -1.7937902212
H  5.0646100044 3.1334102154 0.2395500243
