16

C  1.0013300180 -0.0854400024 0.2298400253
C  2.4756102562 0.0962100103 -0.0694700032
C  3.2598102093 1.1061900854 0.8003500700
N  3.9009103775 -0.0449500047 1.4472700357
C  5.2602601051 -0.0772000030 1.9107501507
C  3.4246201515 -0.9482200742 0.5395300388
O  3.7535803318 -2.0853600502 0.2943500280
H  0.6056300402 -0.9597700834 -0.2960100174
H  0.4344600439 0.7901400328 -0.1035700068
H  0.8157100677 -0.2195800245 1.3005701303
H  2.6520802975 0.2309300154 -1.1431001425
H  2.6663300991 1.7043501139 1.4964500666
H  3.9620501995 1.7446200848 0.2556800246
H  5.5223302841 -1.0953999758 2.2097501755
H  5.3623704910 0.6009800434 2.7605602741
H  5.9253706932 0.2318500131 1.1003301144
