17

C  1.0292400122 -0.2517000139 -0.0483700037
N  2.4931302071 -0.3761800230 -0.0245400015
C  2.8359701633 -1.8070001602 0.0064600008
N  3.1167702675 0.3431800306 -0.9988000393
C  4.2478504181 0.8415600657 -0.6119700670
C  5.0801305771 1.6483300924 -1.5268599987
C  6.2523303032 2.1424200535 -1.1154000759
H  0.7419101000 0.8044800758 0.0024600003
H  0.5775800347 -0.7465800047 0.8184500337
H  0.6016000509 -0.6770300865 -0.9633400440
H  2.3785901070 -2.3013701439 0.8705900311
H  3.9195303917 -1.9371100664 0.1041100100
H  2.5135703087 -2.3182001114 -0.9076300859
H  4.6434302330 0.6914800406 0.4098700285
H  4.6957406998 1.8124800920 -2.5267100334
H  6.6336803436 1.9751701355 -0.1130400077
H  6.8631005287 2.7352001667 -1.7892501354
