10

O  1.1414101124 -0.0536500029 -0.2828600407
C  2.3220002651 -0.0192900021 0.0089900009
O  3.0980002880 -1.0891500711 0.3333200216
C  4.4230904579 -0.6400500536 0.6111100912
C  4.3593401909 0.8201701045 0.4180300534
C  3.1336603165 1.1957000494 0.0651600063
H  5.1197905540 -1.1153299809 -0.0851600096
H  4.6876401901 -0.9063100815 1.6383402348
H  5.1992306709 1.4864400625 0.5478300452
H  2.7532501221 2.1778202057 -0.1493300050
