15

C  0.9192000628 0.0088400012 0.1568500251
C  2.4345700741 0.0037100003 -0.0355300047
C  3.1604402065 1.0017300844 0.8846200705
O  3.5947103500 -0.0582900010 1.7653601170
C  3.1496102810 -1.0585200787 0.8185700178
C  2.8386304379 0.0300400034 -1.5346101522
O  2.5711100101 -0.8289900422 -2.3747701645
H  0.6440800428 -0.0103100007 1.2174199820
H  0.4625900388 -0.8647900820 -0.3205400109
H  0.4752500355 0.9070200920 -0.2864400148
H  2.5288102627 1.7275301218 1.4059500694
H  4.0192303658 1.5235401392 0.4495000243
H  4.0026702881 -1.5582801104 0.3478800356
H  2.5107500553 -1.8089901209 1.2936501503
H  3.4159202576 0.9181200862 -1.8441001177
