17

C  0.7505400777 -0.7394300103 -0.1721900105
C  2.2481100559 -0.7425000668 0.0762000084
C  2.8476603031 0.6519500017 -0.0577000044
O  4.2619500160 0.5516900420 0.1821900159
C  5.0340399742 1.6534901857 0.1448699981
N  6.3172202110 1.3695001602 0.4313600361
N  4.6421003342 2.8366203308 -0.1524300128
H  0.3482600451 -1.7528102398 -0.0777300000
H  0.5207900405 -0.3753100336 -1.1785700321
H  0.2345100194 -0.1000600010 0.5509700179
H  2.7410202026 -1.4233601093 -0.6281900406
H  2.4594202042 -1.1394201517 1.0764501095
H  2.4013102055 1.3279300928 0.6801700592
H  2.6790502071 1.0377800465 -1.0691300631
H  6.5876903534 0.4167400301 0.2339400202
H  6.9583106041 2.0780401230 0.0988100097
H  3.6428604126 2.8605701923 -0.3421700299
