8

C  1.0000001192 0.0000000000 0.0000000000
C  2.1901600361 0.0000000000 0.0000000000
C  3.6341602802 0.0000000000 0.0000000000
C  4.1161804199 1.3611700535 0.0000000000
N  4.5003900528 2.4461600780 0.0000000000
H  -0.0661900043 0.0067400006 0.0000000000
H  4.0124101639 -0.5338300467 -0.8786200285
H  4.0124101639 -0.5338200331 0.8786301017
