14

C  1.0150500536 -0.0253400020 -0.0056800004
C  2.4849901199 0.1005700082 -0.0011700001
N  3.2250602245 1.1905300617 0.0040400005
C  4.5162000656 0.7142700553 0.0064200005
C  5.6679201126 1.6369900703 0.0120200012
C  4.4957203865 -0.6607500315 0.0021900004
O  3.1967504025 -1.0674301386 -0.0026400003
H  0.5429900289 0.9614701271 0.0028500003
H  0.6749700308 -0.5755299926 0.8764900565
H  0.6790700555 -0.5582900643 -0.8999200463
H  6.6162304878 1.0906201601 0.0266800020
H  5.6332902908 2.2836601734 0.8942800760
H  5.6526002884 2.2700703144 -0.8805700541
H  5.2450103760 -1.4380801916 0.0019900003
