15

C  0.9814000726 0.0501700044 -0.1100700051
C  2.4688601494 0.0672600120 0.0199600011
O  2.9372303486 0.1586500108 1.3803400993
C  3.3225102425 -0.7227200866 -0.9353500605
C  3.3095004559 0.7783100605 -1.0130500793
N  4.5024805069 1.5283900499 -0.5926800370
H  0.6630499959 0.0150800012 -1.1566400528
H  0.5495800972 0.9476000667 0.3443200290
H  0.5653100014 -0.8257800341 0.3987700343
H  3.5904002190 -0.5343100429 1.5778800249
H  2.8344802856 -1.2653700113 -1.7354201078
H  4.2151303291 -1.2109100819 -0.5672300458
H  2.7929902077 1.2130700350 -1.8649002314
H  4.8909001350 1.1075301170 0.2530900240
H  4.2172002792 2.4608602524 -0.2904199958
