14

C  0.9326900840 -0.1373800039 -0.0263900012
C  2.4433302879 0.0178000014 0.0557700060
C  2.8488402367 1.4634500742 0.0258200020
C  3.5107302666 2.0629801750 1.0257600546
C  3.8865103722 3.4876101017 0.9318300486
O  4.4930801392 4.0471901894 1.8378300667
H  0.6606400609 -1.1977900267 -0.0185200013
H  0.5374799967 0.3054100275 -0.9470100403
H  0.4386600256 0.3453200161 0.8236700296
H  2.9087302685 -0.4954800308 -0.7934200764
H  2.8072800636 -0.4742300510 0.9654600620
H  2.5850102901 2.0180101395 -0.8726800680
H  3.7996103764 1.5518001318 1.9368602037
H  3.5931601524 4.0130205154 0.0084000006
