18

C  1.0945900679 0.0899700075 -0.2575400174
C  2.5629401207 -0.1934800148 -0.0606800057
C  2.9318802357 -1.6490901709 -0.1417600065
O  2.3630301952 -2.3382999897 0.9614900947
C  3.4284403324 0.8213700652 0.1426500082
C  4.9059205055 0.7575100660 0.3597900271
N  5.5749301910 1.4920101166 -0.7018500566
H  0.8719900250 1.1619800329 -0.2402900159
H  0.5033400059 -0.3827000260 0.5334800482
H  0.7590300441 -0.3004400134 -1.2243400812
H  4.0086803436 -1.8294601440 -0.1319300085
H  2.5425002575 -2.0918002129 -1.0650300980
H  2.5453302860 -1.8016501665 1.7514401674
H  3.0328803062 1.8376802206 0.1689700186
H  5.2935299873 -0.2625300288 0.3998800218
H  5.1400704384 1.2265200615 1.3227701187
H  5.4031605721 1.0200101137 -1.5888701677
H  6.5815205574 1.4528200626 -0.5525100231
