15

O  2.7008001804 -0.7704400420 1.1023401022
C  2.3623001575 -0.0032300004 -0.0548500046
C  2.9273900986 1.4328200817 0.0000000000
C  2.4224500656 2.1805200577 1.2122200727
C  1.6983700991 3.3071300983 1.1721601486
C  4.3713903427 1.4328200817 0.0000000000
C  5.5615506172 1.4328200817 0.0000000000
H  2.3688702583 -1.6716601849 0.9532501101
H  1.2694501877 0.0234800018 -0.1280200034
H  2.7513701916 -0.5313200355 -0.9329701066
H  2.5821702480 1.9464701414 -0.9072300792
H  2.6717700958 1.7482401133 2.1819202900
H  1.4233100414 3.7794301510 0.2346200198
H  1.3709501028 3.7854802608 2.0905001163
H  6.6268706322 1.4319300652 0.0104300007
