17

C  1.0020101070 1.7402700186 -1.3887901306
C  2.2226002216 1.4158101082 -0.5889300704
C  3.4765303135 1.6161601543 -1.0220401287
C  4.7087306976 1.2819601297 -0.2204700112
C  5.5866904259 0.2782000005 -0.9599300623
C  5.4449405670 2.5834901333 0.0524400026
O  6.5368604660 2.8840303421 -0.4216300249
H  0.4083000124 0.8345700502 -1.5454701185
H  1.2489900589 2.1603701115 -2.3689301014
H  0.3863400221 2.4671401978 -0.8505700827
H  2.0464701653 0.9842801094 0.3949500024
H  3.6415803432 2.0427801609 -2.0121600628
H  4.4415702820 0.8610000610 0.7568500638
H  5.9088106155 0.6620800495 -1.9344402552
H  5.0506305695 -0.6621299982 -1.1271201372
H  6.4891901016 0.0542100035 -0.3812600374
H  4.9256305695 3.2794003487 0.7355100513
