17

C  1.0134401321 -0.0679200068 -0.4615200460
C  2.5160002708 0.1632500142 -0.3063800335
O  3.1411402225 -0.4405000210 -1.4435200691
C  2.9776902199 1.6148501635 -0.1738900244
C  2.1506903172 2.6704301834 -0.3066700101
C  4.3819003105 1.8899002075 0.1345600039
C  5.3584008217 0.9901300669 0.2992300391
H  0.4501400292 0.3447500169 0.3807500303
H  0.8032100797 -1.1418000460 -0.5201700330
H  0.6375100613 0.3668400049 -1.3943401575
H  2.8375501633 -0.3950400352 0.5813500285
H  3.3885302544 0.2799300253 -2.0480501652
H  1.0944101810 2.5602102280 -0.5274500251
H  2.4995903969 3.6936800480 -0.1982100159
H  4.6578702927 2.9396700859 0.2397700250
H  5.1995105743 -0.0800700039 0.2118500173
H  6.3701901436 1.3141901493 0.5251200199
