14

C  1.6483501196 -0.5433300138 -0.4017500281
O  3.0091502666 -0.1397500038 -0.3282400370
C  3.1286301613 1.2222499847 0.0796800032
C  4.5775203705 1.5606700182 0.1583100110
C  5.3315200806 2.0501601696 -1.0476601124
O  4.8840904236 2.9492204189 -0.0203700028
H  1.6159001589 -1.5890802145 -0.7192701101
H  1.1078801155 0.0616700053 -1.1362500191
H  1.1707501411 -0.4613000453 0.5794799924
H  2.6704802513 1.3526901007 1.0663501024
H  2.6087102890 1.8665400743 -0.6391500831
H  5.1080803871 1.0092600584 0.9222100377
H  4.8225002289 2.0803701878 -2.0028901100
H  6.3927001953 1.8438202143 -1.1051801443
