17

C  2.4905703068 -0.9256600738 1.1419600248
C  2.0812201500 0.2518800199 0.2943000197
O  0.9526901245 0.3017300367 -0.2005200237
C  3.0924801826 1.4106001854 0.1518500149
C  3.0565001965 1.9421000481 -1.2806100845
C  2.7162201405 2.5118703842 1.1429800987
O  4.4357700348 1.0031200647 0.4036300182
H  3.3677902222 -1.4104101658 0.7068100572
H  1.6745901108 -1.6534101963 1.1777000427
H  2.7054002285 -0.5896400809 2.1594903469
H  3.3121004105 1.1493300200 -1.9936600924
H  3.7939503193 2.7408702374 -1.4213001728
H  2.0688300133 2.3317401409 -1.5498701334
H  2.7508902550 2.1377501488 2.1731100082
H  1.7057801485 2.8934900761 0.9606700540
H  3.4226503372 3.3477802277 1.0880900621
H  4.5706300735 0.9449300766 1.3649401665
