15

C  0.9872600436 -0.0817500055 -0.1801200211
C  2.4746901989 0.0358400010 0.0040700003
C  3.1556403637 -1.2768801451 0.2074100226
O  2.5714502335 -2.3506302834 0.1055600047
C  3.1862301826 1.1859301329 0.0184900016
N  2.5979800224 2.4217402935 -0.0495700017
N  4.5531907082 1.2531201839 0.0941800028
H  0.5072000623 0.8616600633 -0.4524900317
H  0.5183500051 -0.4421100318 0.7415900230
H  0.7560200691 -0.7882000804 -0.9853300452
H  4.2226705551 -1.2430200577 0.4734400213
H  1.6195501089 2.4259102345 0.2246500254
H  3.1146302223 3.0951001644 0.5106500387
H  5.0252203941 0.4857500494 -0.3754300475
H  4.8753905296 2.1298401356 -0.3109200001
