15

C  2.2601702213 -0.5450700521 -0.6663500667
O  3.5255801678 0.0483000018 -0.4024800360
C  3.5594201088 1.4057000875 -0.1639100164
C  2.5045902729 2.2405502796 -0.1579200178
C  4.9152407646 2.0093202591 0.1168700159
C  6.0938506126 1.0697001219 0.1102000102
O  5.0628900528 3.2118501663 0.3355700374
H  2.4181001186 -1.6153601408 -0.8286500573
H  1.8139902353 -0.1291800141 -1.5756100416
H  1.5870400667 -0.4304400384 0.1895500273
H  1.4900602102 1.9170601368 -0.3464800417
H  2.6335101128 3.3019504547 0.0416100025
H  5.9444904327 0.2730500102 0.8438600898
H  6.9995408058 1.6204301119 0.3827100098
H  6.2300200462 0.6500100493 -0.8901800513
