14

C  0.9203800559 0.0613800064 0.0095000006
C  2.3980200291 -0.0288500022 -0.0085800011
C  3.3044703007 1.0119100809 0.0000900000
O  4.5787305832 0.5432000756 -0.0292200036
C  4.4995703697 -0.8079700470 -0.0597100034
N  5.6580705643 -1.4718601704 -0.0932500064
C  3.1879601479 -1.2137901783 -0.0432500057
H  0.5844000578 1.1032100916 0.0255300011
H  0.5173200369 -0.4391400218 0.8956500888
H  0.4977300465 -0.4174000323 -0.8796500564
H  3.2078104019 2.0884702206 0.0220600013
H  5.6942405701 -2.4523501396 0.1577600092
H  6.5039405823 -0.9517800808 0.1143200099
H  2.8382902145 -2.2355902195 -0.0620400049
