20

C  1.0294201374 -0.0309400018 0.0031300001
C  2.5466201305 0.0065000006 0.0553100035
C  3.0870301723 1.1470501423 0.9011901021
C  4.4962401390 0.6762000918 1.1988401413
C  4.3316302299 -0.8295500278 1.3871001005
C  5.5346903801 -1.6198600531 0.8918300271
N  3.0870802402 -1.2005600929 0.6925400496
H  0.6796800494 -0.8735600710 -0.6034900546
H  0.6373000145 0.8897700906 -0.4405200183
H  0.5930700898 -0.1334000081 1.0036001205
H  2.9475603104 0.0843900070 -0.9635601044
H  2.5210204124 1.2615901232 1.8339600563
H  3.0762600899 2.1042602062 0.3711000383
H  5.1487803459 0.9030900598 0.3465100229
H  4.9108505249 1.1636900902 2.0862400532
H  4.1862902641 -1.0438001156 2.4528603554
H  5.7072000504 -1.4621400833 -0.1777500063
H  5.3902602196 -2.6931502819 1.0556200743
H  6.4395403862 -1.3167800903 1.4286201000
H  3.2457401752 -1.9275701046 -0.0033600002
