13

N  1.1307901144 0.0499300025 0.3834300041
C  2.3825802803 0.0643700063 0.0999700055
N  3.2077100277 1.1451900005 0.0145200007
C  4.3943800926 0.8123800159 -0.7592100501
C  4.5600204468 -0.7172800899 -0.6425000429
C  3.1721301079 -1.1647701263 -0.2811000347
O  2.7188601494 -2.2904901505 -0.2490100116
H  0.8037200570 -0.9282500148 0.3431500196
H  2.7467701435 2.0373201370 -0.1300500184
H  4.2382001877 1.0960900784 -1.8062801361
H  5.2757005692 1.3413001299 -0.3849800229
H  4.8927307129 -1.1592301130 -1.5840101242
H  5.2410302162 -0.9774100780 0.1727900058
