15

C  2.2108800411 -0.5066000223 -1.3970301151
C  2.4638001919 0.0226200018 0.0061500007
C  3.0549802780 1.3910300732 -0.0024800003
N  2.2669701576 2.4738302231 -0.0038100001
N  3.1274602413 3.5040903091 -0.0130700013
C  4.4349503517 3.1187701225 -0.0168300029
C  4.4247703552 1.7463600636 -0.0094600013
H  1.7806402445 -1.5121401548 -1.3520601988
H  3.1408402920 -0.5597500205 -1.9736901522
H  1.5138400793 0.1378500164 -1.9436701536
H  3.1379401684 -0.6625100374 0.5339800715
H  1.5215700865 0.0283300020 0.5673000216
H  2.7487902641 4.4452805519 -0.0162300020
H  5.2377605438 3.8422601223 -0.0240100026
H  5.2817301750 1.0869101286 -0.0104100006
