15

N  1.3775901794 0.1279300153 1.0231001377
C  2.2895500660 0.0523600020 0.1191200092
C  2.9851703644 -1.2682100534 -0.2125500143
C  4.0850300789 -0.8655700684 -1.1606501341
C  5.1828203201 0.0776500031 -0.7417800426
C  3.9420204163 0.6152300835 -1.3903800249
N  2.7853002548 1.0945800543 -0.6296500564
H  1.0366400480 1.0905300379 1.0779401064
H  2.2689499855 -1.9424800873 -0.6907000542
H  3.3808300495 -1.7266001701 0.6979100108
H  4.2261900902 -1.5245701075 -2.0032300949
H  5.3370504379 0.2563600242 0.3159800172
H  6.0975003242 0.0757800117 -1.3240901232
H  4.0040302277 0.9957200289 -2.4031202793
H  2.7596204281 2.0215902328 -0.2238800228
