16

C  1.3827100992 -0.2362700105 -0.2980000079
O  2.7975101471 -0.1059700102 -0.3688000441
C  3.2459404469 1.1174300909 0.2191700190
C  4.7707505226 1.2106601000 0.1070600078
C  5.2254805565 1.2497200966 -1.3522400856
C  5.2442603111 2.4059102535 0.8218600750
N  5.6057705879 3.3517801762 1.3886200190
H  1.1009900570 -1.1846700907 -0.7631300688
H  0.8957700729 0.5785900354 -0.8422501087
H  1.0511001348 -0.2453500181 0.7446700931
H  2.9427802563 1.1358400583 1.2738300562
H  2.7674403191 1.9644900560 -0.2891200185
H  5.2116003036 0.3167900145 0.5659500957
H  4.8006801605 2.1109201908 -1.8807501793
H  4.9236207008 0.3423400223 -1.8855600357
H  6.3167099953 1.3271801472 -1.4192800522
