17

C  0.7274400592 0.9470601082 -0.4325200319
N  2.1597502232 1.0139800310 -0.1949100047
C  2.8006501198 -0.2156600058 0.2552800179
C  3.2230203152 -1.0013401508 -0.9501900673
C  2.8063602448 -2.2413702011 -1.2406201363
C  2.8635802269 2.1862802505 -0.2518600225
N  2.4359102249 3.3702101707 -0.5141200423
H  0.4572200477 1.4891300201 -1.3449500799
H  0.1854900122 1.3863201141 0.4114600122
H  0.3795100152 -0.0841900110 -0.5583400726
H  2.1187300682 -0.7923900485 0.8921300769
H  3.6825702190 0.0026200004 0.8693100214
H  3.9252202511 -0.5120500326 -1.6217901707
H  2.1081101894 -2.7760403156 -0.6044100523
H  3.1603600979 -2.7484800816 -2.1334502697
H  3.9391901493 2.0604102612 -0.0384600013
H  1.4320501089 3.3469202518 -0.6897200346
