12

C  1.0442800522 0.0000700000 0.0910200030
C  2.5250203609 0.0110900002 -0.0689100027
N  3.2345602512 -1.0501800776 -0.2583200336
O  4.5982503891 -0.6368900537 -0.3686300218
C  4.6774506569 0.7295400500 -0.2399000227
O  5.7033205032 1.3905102015 -0.2915200293
C  3.3071203232 1.2617801428 -0.0264900029
H  0.6624800563 -1.0234100819 0.0492300056
H  0.5894600153 0.5869000554 -0.7113300562
H  0.7798001170 0.4441800117 1.0541200638
H  3.0102202892 1.9239401817 -0.8410900831
H  3.2165102959 1.7336601019 0.9530300498
