12

N  1.0050700903 0.0349400006 -0.0160600003
C  2.3395502567 -0.0034500002 -0.0050900006
C  3.1588902473 1.0940301418 0.0013400001
N  4.4536004066 0.6390400529 0.0109400013
C  4.4553503990 -0.7330901027 0.0110300006
C  3.1438000202 -1.1589200497 0.0010200001
H  0.4836400449 0.9048500657 0.0053100004
H  0.4343700409 -0.8029700518 0.0044700005
H  2.9462702274 2.1535401344 -0.0007600000
H  5.2778401375 1.2252801657 0.0165100023
H  5.3848304749 -1.2858400345 0.0176100023
H  2.8156003952 -2.1888401508 -0.0020900001
