15

C  0.8540200591 -0.2919900119 -0.0406400040
C  2.3555803299 -0.3094500303 0.0083400002
C  3.0493903160 -1.4595700502 -0.0178400017
C  3.0370001793 1.0322901011 0.1063500121
O  2.7160701752 1.8036102057 -1.0580300093
C  3.7201001644 1.9866801500 -1.9462101460
O  4.8712701797 1.5919700861 -1.8566801548
H  0.4509500563 0.2161900103 0.8413100839
H  0.4322000146 -1.3025200367 -0.0629800037
H  0.5043900609 0.2326700091 -0.9355500340
H  2.5535402298 -2.4234602451 -0.0838100091
H  4.1355304718 -1.4683001041 0.0156600010
H  4.1183400154 0.9335500598 0.2605900168
H  2.6498000622 1.5745800734 0.9757800698
H  3.3370501995 2.5735201836 -2.7953500748
