14

C  -1.1189301014 -0.0017400002 -1.0178401470
C  -0.5551500320 0.9989100695 0.0358200036
C  -1.0520501137 -0.0396500044 1.0856400728
C  -0.5679399967 -1.0495200157 -0.0012800001
C  0.9822800756 -1.1087901592 -0.0510400049
N  1.6707201004 -0.0118200006 -0.0531800054
O  0.8913000822 1.1917800903 -0.0069200005
H  -2.2073502541 0.0083200000 -1.1441800594
H  -0.6412700415 0.0154300015 -2.0009400845
H  -1.0645700693 1.9660501480 0.0694000050
H  -0.5129400492 -0.0579200052 2.0366501808
H  -2.1303601265 -0.0358400010 1.2813000679
H  -1.0550700426 -2.0265901089 -0.0034400003
H  1.4733101130 -2.0932402611 -0.0841700062
