18

C  1.1900200844 -0.2290400267 -0.4506900609
N  2.6412200928 -0.0985600054 -0.4826100171
C  3.0754902363 1.0505400896 0.3131900132
C  4.5693702698 1.1024601460 0.2861300409
O  5.1744604111 1.6275900602 1.4794901609
C  5.3912906647 0.2373500168 1.2057600021
C  6.7930207253 -0.1191900074 0.8671400547
H  0.8904600739 -1.1006801128 -1.0400800705
H  0.6990000606 0.6514700055 -0.8766400814
H  0.8277500272 -0.3829700053 0.5711399913
H  2.9402801991 0.0291800015 -1.4483500719
H  2.7164201736 0.9547801018 1.3455401659
H  2.6744902134 1.9828500748 -0.1002800018
H  4.9778804779 1.4113100767 -0.6659000516
H  4.8930902481 -0.4995000362 1.8209701777
H  7.3129405975 0.6967000365 0.3532000184
H  6.8106904030 -0.9983400702 0.2151400149
H  7.3523001671 -0.3582000434 1.7772301435
