17

N  1.0684601068 -0.0148700010 -0.2443200052
C  2.5039403439 0.0173400007 0.0338900052
C  2.9444100857 1.0731701851 1.0420100689
O  4.2327504158 0.6556900740 1.5221000910
C  4.3613405228 -0.7604700327 1.2846599817
C  3.0342400074 -1.2540701628 0.7048800588
N  3.1480500698 -2.4050202370 -0.1963900179
H  0.8650600910 -0.7497000694 -0.9190200567
H  0.7816401124 0.8628200889 -0.6764800549
H  3.0425302982 0.1849800199 -0.9086200595
H  2.2695701122 1.1269500256 1.9035601616
H  3.0239503384 2.0698201656 0.5986700654
H  5.1954402924 -0.9001901150 0.5879400373
H  4.6109404564 -1.2633800507 2.2243301868
H  2.3757302761 -1.5337401628 1.5377202034
H  3.7157101631 -2.1559801102 -1.0057700872
H  2.2213499546 -2.6298203468 -0.5558200479
