15

C  2.0192101002 -0.5141300559 0.4989400208
N  3.3706004620 -0.0740900040 0.2944200337
C  4.2663207054 -0.7952800393 -0.4529900551
O  4.0532803535 -1.8923501968 -0.9491200447
C  5.5971903801 -0.1447000057 -0.6173300147
C  5.8643503189 0.7382000685 -1.8032201529
N  5.6375803947 1.3277300596 -0.4861800373
H  1.5987901688 0.0314600021 1.3469601870
H  1.9991902113 -1.5885400772 0.6992400885
H  1.4379501343 -0.3025900126 -0.4035000503
H  3.6336402893 0.8901800513 0.4776500463
H  6.4301505089 -0.6915700436 -0.1914100200
H  5.0744304657 0.8721900582 -2.5326900482
H  6.8734903336 0.7820100784 -2.1946103573
H  6.5238604546 1.6146401167 -0.0643300042
