17

C  0.9864100814 0.1482500136 -0.2058300078
C  2.4583902359 0.0799100026 0.0160700008
C  3.3189301491 -0.7783500552 -0.8657200336
C  3.4073603153 0.7296000719 -0.9700100422
C  4.6044001579 1.4459201097 -0.4872200191
N  4.3846807480 2.4995701313 0.3302500248
N  5.7792105675 1.0717900991 -0.8456300497
H  0.5874100327 1.0796501637 0.2078200132
H  0.4906600416 -0.6881600618 0.2965500057
H  0.7271000743 0.1091100127 -1.2689501047
H  2.7058002949 0.1056500077 1.0718700886
H  2.8559203148 -1.3134100437 -1.6870801449
H  4.1349802017 -1.3169401884 -0.3957600296
H  2.9718303680 1.1745101213 -1.8612000942
H  3.5489404202 2.4800601006 0.8972200751
H  5.2207803726 2.7916400433 0.8228000402
H  5.7127604485 0.2671599984 -1.4768600464
