16

C  1.1612401009 -0.2764500380 -0.0898700058
C  2.6773099899 -0.1616500020 -0.0552500039
C  3.1273500919 1.2971900702 0.0179700013
C  4.6506404877 1.4028000832 0.0538200028
N  5.0603303909 2.8005802631 0.1296900064
H  0.8613801003 -1.3278801441 -0.1439800113
H  0.7487500906 0.2397600263 -0.9627200961
H  0.7145900130 0.1585000157 0.8098700643
H  3.0937602520 -0.6362400651 -0.9523200393
H  3.0594902039 -0.7149201035 0.8110800385
H  2.7022502422 1.7660402060 0.9138001204
H  2.7368202209 1.8432201147 -0.8487100601
H  5.0846505165 0.9461001158 -0.8433900476
H  5.0464501381 0.8678300381 0.9246000648
H  4.7230005264 3.3017702103 -0.6911100149
H  6.0776305199 2.8570501804 0.1009400114
