15

C  1.0380600691 -0.0086200004 -0.0363299996
C  2.5284101963 -0.0006000000 -0.0126900012
C  3.3400800228 -0.7475200295 -1.0371400118
O  2.6058902740 -1.4430800676 -2.0594701767
C  3.3053503036 0.7636700869 -1.0583000183
C  4.4747004509 1.4870300293 -0.6449600458
C  5.4488105774 2.0952100754 -0.3015600145
H  0.6493800282 0.7535000443 0.6464900970
H  0.6603100896 -0.9822900891 0.2911500335
H  0.6343100667 0.1986500174 -1.0326001644
H  2.9020202160 -0.0184500013 1.0062800646
H  4.2460603714 -1.2313401699 -0.6811800003
H  2.0586102009 -0.8480200768 -2.5984003544
H  2.7401001453 1.2341401577 -1.8560101986
H  6.3155803680 2.6358201504 0.0042100004
