17

C  0.9684400558 -0.4449800551 0.1283700019
C  2.4247200489 -0.4288200438 -0.3326900303
C  2.9099600315 -1.8424601555 -0.6356000304
N  2.5885400772 0.4131700397 -1.5092701912
C  2.6380600929 1.7724601030 -1.4019100666
N  2.6949801445 2.3749003410 -2.6166601181
O  2.6386702061 2.4142401218 -0.3643600345
H  0.6252600551 0.5620700121 0.3890700340
H  0.8455000520 -1.0802301168 1.0120500326
H  0.3077700436 -0.8232000470 -0.6596300602
H  3.0407702923 -0.0092400005 0.4719300270
H  2.3278701305 -2.2989301682 -1.4441699982
H  2.8273601532 -2.4831602573 0.2487100214
H  3.9593303204 -1.8330000639 -0.9501801133
H  2.1943402290 0.0768800080 -2.3754000664
H  3.2458603382 1.9090301991 -3.3220403194
H  2.8472502232 3.3743901253 -2.5524401665
