17

C  2.4623801708 -1.1297501326 2.2443799973
C  3.2165601254 -1.2434500456 0.9476500750
C  3.4998102188 -2.4376001358 0.4004400074
C  3.6053900719 0.0513300039 0.2791700363
C  4.5831704140 0.8511400223 1.1266200542
C  5.9569106102 0.2698500156 1.3390601873
O  4.2638101578 1.9315401316 1.6276501417
H  3.0898103714 -0.6697601080 3.0144803524
H  2.1432600021 -2.1083402634 2.6195402145
H  1.5652900934 -0.5168600678 2.1113801003
H  3.2039103508 -3.3673300743 0.8790301085
H  4.0275101662 -2.5239303112 -0.5472199917
H  2.7112801075 0.6607500315 0.1047300100
H  4.0690803528 -0.1131600067 -0.7005500793
H  6.4137206078 0.0412200019 0.3737200201
H  5.8893704414 -0.6327500939 1.9501900673
H  6.5855507851 0.9989300966 1.8582601547
