18

C  1.1717101336 -0.1309200078 0.0632800087
C  2.6693301201 -0.3670700192 -0.0654700026
N  3.3930101395 0.6704200506 0.6664100885
C  4.8479504585 0.5129000545 0.5788500905
C  5.4992403984 1.8096702099 1.0610001087
C  5.3126006126 -0.6165500879 1.4048399925
C  5.6896305084 -1.5381101370 2.0789902210
H  0.6206800342 -0.8920500875 -0.4984900355
H  0.8892400265 0.8504400849 -0.3327300251
H  0.8499000669 -0.1853000224 1.1088601351
H  2.9408202171 -0.3402900100 -1.1268801689
H  2.9024400711 -1.3653000593 0.3209000230
H  3.1175301075 0.6612400413 1.6478201151
H  5.1459603310 0.3587800264 -0.4655200243
H  5.2464203835 2.0297102928 2.1053502560
H  5.1805400848 2.6608002186 0.4486000538
H  6.5916104317 1.7440401316 0.9955900908
H  6.0226807594 -2.3543901443 2.6765902042
