14

C  0.9764400721 0.1093800068 -0.1256600022
C  2.4471402168 -0.1012500077 0.0463800058
C  3.0957801342 -1.2765700817 0.0110700009
N  2.5922400951 -2.5297603607 -0.2316500098
C  3.2224102020 1.1321901083 0.3216700256
O  4.3168706894 1.2509301901 -0.4592200518
O  2.8700203896 1.9815801382 1.1210399866
H  0.7880300879 0.8616800308 -0.8991700411
H  0.5270100236 0.4571800530 0.8103800416
H  0.4534700513 -0.8024401069 -0.4273700118
H  4.1701402664 -1.3169701099 0.1976300180
H  1.5856801271 -2.6193101406 -0.1099700108
H  3.0988101959 -3.2798302174 0.2371500134
H  4.3748703003 0.5651300550 -1.1518301964
