20

C  1.2841501236 0.3545200229 0.0944000036
C  2.7778902054 -0.0131600006 -0.0156200007
C  3.1391103268 -0.9088900685 1.1895000935
C  2.9776101112 -0.8349600434 -1.3052700758
N  3.5022003651 1.2604001760 -0.2075900137
C  3.9574003220 1.9673501253 0.9778401256
C  4.9314103127 1.2652200460 0.0599600077
H  0.9467101097 0.9366400838 -0.7718300819
H  1.0846000910 0.9482600689 0.9941100478
H  0.6582400799 -0.5441400409 0.1451700032
H  2.9461803436 -0.4140700400 2.1463801861
H  4.1844201088 -1.2314001322 1.1708501577
H  2.5306100845 -1.8218700886 1.1839700937
H  2.6773700714 -0.2685900331 -2.1951601505
H  2.3772900105 -1.7521201372 -1.2867401838
H  4.0258502960 -1.1287400723 -1.4339600801
H  3.7851803303 1.5581700802 1.9625802040
H  3.9064202309 3.0489304066 0.9271500707
H  5.5305204391 1.8772400618 -0.6043100357
H  5.4219603539 0.3669600189 0.4063600302
