20

C  3.3170702457 -1.7342001200 0.5604200363
C  2.8006200790 -0.4507100582 -0.0942600071
N  1.3359701633 -0.4278600216 -0.0014400001
C  3.3721404076 0.8177200556 0.5700100064
C  4.8423705101 1.0120401382 0.3095600307
C  5.3119902611 1.8920000792 -0.8201600313
C  5.4728703499 2.3491702080 0.6035200357
H  4.3955402374 -1.8490802050 0.4135900140
H  2.8392701149 -2.6180901527 0.1242000088
H  3.1194002628 -1.7424601316 1.6383001804
H  3.0744302273 -0.4603700340 -1.1554400921
H  1.0529900789 -0.4402100444 0.9785400629
H  0.9539600611 -1.2776501179 -0.4150600433
H  3.2093203068 0.7792300582 1.6547800303
H  2.8226802349 1.6945301294 0.2037800103
H  5.4366803169 0.1419900060 0.5630400777
H  4.5726399422 2.3979201317 -1.4316201210
H  6.2030005455 1.5950001478 -1.3605401516
H  6.4709501266 2.3553800583 1.0260100365
H  4.8395304680 3.1568202972 0.9536300898
