18

C  0.9353700876 -0.0799400061 0.0611900054
N  2.3903400898 -0.0893400088 0.1224300116
C  2.9305202961 1.2478001118 -0.1055000052
C  4.4243202209 1.1946700811 -0.0187600013
C  5.2492303848 1.5787900686 -1.0047100782
C  6.6860303879 1.5199401379 -0.8892800212
C  7.5121808052 1.9030901194 -1.8690001965
H  0.5567100644 -1.0908700228 0.2410500199
H  0.5764800310 0.2436100096 -0.9214000702
H  0.5101700425 0.5725900531 0.8306200504
H  2.7505102158 -0.7123900652 -0.6001600027
H  2.5669500828 1.9386601448 0.6642000079
H  2.6087801456 1.6314401627 -1.0812201500
H  4.8291702271 0.8258401155 0.9216300845
H  4.8367705345 1.9513601065 -1.9404001236
H  7.1072707176 1.1436901093 0.0415000021
H  7.1479706764 2.2851102352 -2.8174402714
H  8.5879001617 1.8400501013 -1.7375401258
