12

C  0.9802001119 0.0641700029 -0.0047900006
C  2.4597802162 -0.0290900022 -0.0060000005
N  3.2153003216 1.0758500099 -0.0113200005
N  4.4744405746 0.6106300950 -0.0110300006
C  4.5496401787 -0.7504900098 -0.0060000005
C  3.2520401478 -1.2005201578 -0.0026800002
H  0.6412600875 1.1052601337 0.0092000011
H  0.5680400729 -0.4379100204 0.8761700392
H  0.5684800744 -0.4143300354 -0.8989800215
H  5.2343707085 1.2821300030 -0.0145200007
H  5.4992804527 -1.2653901577 -0.0052800006
H  2.9180002213 -2.2284002304 0.0015400001
