12

C  0.9997100830 -0.0616100058 -0.0105400011
C  2.5200002193 0.0000000000 0.0000000000
O  3.0186800957 -0.6791300178 -1.1467701197
C  3.0020201206 1.3611700535 0.0000000000
C  3.3993003368 2.4830701351 0.0000000000
C  3.9144501686 3.9297802448 -0.0006800001
N  4.2968406677 5.0239105225 -0.0023500002
H  0.5722300410 0.4269400239 0.8713200688
H  0.6596800685 -1.1027400494 -0.0330900028
H  0.5879000425 0.4230400026 -0.9037300348
H  2.8940103054 -0.5341800451 0.8795400858
H  2.6981501579 -0.2028700113 -1.9314401150
