15

C  1.0743100643 0.0568600036 0.2305100113
N  2.4686901569 0.0424500033 -0.1874000132
C  3.0570802689 1.1800900698 -0.2418400198
C  4.5273504257 1.2765600681 -0.6746200323
C  4.7179307938 2.7780203819 -0.5877300501
C  3.5901300907 3.3772702217 -0.1846600175
N  2.6155002117 2.4528100491 0.0238400027
H  0.7021700144 -0.9716000557 0.2709700167
H  0.4503000379 0.6057000160 -0.4827100337
H  0.9576801062 0.4878700376 1.2305901051
H  4.6523904800 0.9046000838 -1.6943901777
H  5.1700606346 0.7395600677 0.0272300020
H  5.6434907913 3.2801001072 -0.8241000772
H  3.4073002338 4.4312901497 -0.0285000037
H  1.6818501949 2.6938202381 0.3142500222
