15

C  0.9690300822 -0.0264600031 0.1397899985
C  2.4578001499 0.1310800016 -0.0842800066
C  3.1963500977 1.1073900461 0.8375100493
C  4.1271505356 -0.0798700079 1.1211701632
O  3.1912701130 -0.9928500652 0.4724600315
C  5.5449304581 -0.0694900006 0.4776600301
O  5.8954505920 0.5241700411 -0.5432299972
H  0.5765000582 -0.8608000278 -0.4501400292
H  0.4362300336 0.8800500631 -0.1644200087
H  0.7378000617 -0.2189100236 1.1926701069
H  2.7060201168 0.2554100156 -1.1458400488
H  2.6339402199 1.4534502029 1.7097401619
H  3.6485302448 1.9646201134 0.3321800232
H  4.1878499985 -0.3142000437 2.1914701462
H  6.2919507027 -0.6533300281 1.0402600765
