14

C  1.7437500954 -0.5275800824 -1.2631701231
O  1.9529302120 0.2061800212 -0.0662200078
C  3.0427203178 1.1597200632 -0.1039400101
C  2.7284600735 2.5564701557 -0.6979900002
N  3.3223803043 3.1432902813 0.5077200532
C  3.2759101391 1.9714101553 1.2047500610
O  3.3553802967 1.7875201702 2.3947103024
H  0.9099600315 -1.2170200348 -1.1090900898
H  2.6390902996 -1.1042301655 -1.5129901171
H  1.4965001345 0.1524000168 -2.0833001137
H  3.9716501236 0.7020000815 -0.4662900269
H  1.6681901217 2.8031902313 -0.8084400892
H  3.2743401527 2.8084101677 -1.6098800898
H  3.0477602482 3.9784603119 1.0091100931
