15

C  0.8545800447 0.0025600002 -0.0052900007
C  2.3376600742 0.0259200018 -0.0170900021
C  3.1466400623 1.1012500525 0.0044000004
C  4.5753102303 0.7527600527 -0.0438500047
O  5.1320304871 -0.0398700014 -1.1051801443
C  4.6059107780 -0.7619000673 0.0087900013
C  3.1730103493 -1.2383700609 -0.0701500103
H  0.4810200334 -1.0258100033 0.0104900012
H  0.4543200135 0.4906200469 -0.8986100554
H  0.4669900239 0.5117000341 0.8818400502
H  2.8060600758 2.1279101372 0.0298100021
H  5.2468705177 1.3084900379 0.5973800421
H  5.2614703178 -1.2796601057 0.6882600784
H  2.9425201416 -1.8817501068 0.7849300504
H  2.9958500862 -1.7904801369 -0.9980400801
