20

C  2.0726301670 -1.4055701494 1.2667300701
N  3.3916301727 -1.2937600613 0.6376300454
C  3.4352002144 -2.1330599785 -0.5621200800
C  3.6837103367 0.1173600107 0.3326300383
C  5.1051206589 0.3849900365 -0.1725300103
C  6.1800804138 -0.0892399997 0.7933600545
O  7.4557609558 0.2715300024 0.2695400417
H  2.0379300117 -0.8277201056 2.1975800991
H  1.8616601229 -2.4462599754 1.5392700434
H  1.2692902088 -1.0513800383 0.6098100543
H  3.1767504215 -3.1698300838 -0.3158400357
H  4.4446702003 -2.1688301563 -0.9847400784
H  2.7441501617 -1.7832101583 -1.3377600908
H  3.5478303432 0.7125000358 1.2464801073
H  2.9666101933 0.5081900358 -0.4021200538
H  5.2245302200 1.4640101194 -0.3352500200
H  5.2656507492 -0.0677100047 -1.1576800346
H  6.1576504707 -1.1761699915 0.9173800349
H  6.0647602081 0.3854400218 1.7733501196
H  8.1205711365 -0.0892000049 0.8811300397
