15

N  3.7745804787 -0.9477800727 -1.5153400898
C  3.0804102421 -0.5554300547 -0.4106900394
N  2.2742302418 -1.3908600807 0.1627700180
C  3.1737301350 0.8023000360 0.1862300187
C  4.0594401360 1.7244402170 -0.2157800049
C  4.1351604462 3.0383703709 0.3803300261
C  5.0058002472 3.9722301960 -0.0205900017
H  4.0637102127 -0.2092000097 -2.1454000473
H  3.4010202885 -1.7449800968 -2.0134401321
H  2.3190202713 -2.2930102348 -0.3123700321
H  2.4749903679 0.9919700623 0.9955600500
H  4.7713203430 1.5052701235 -1.0054900646
H  3.4492702484 3.2700102329 1.1935700178
H  5.7138905525 3.7991204262 -0.8247100711
H  5.0267705917 4.9459605217 0.4590300322
