16

O  1.0183900595 0.0339600034 -0.0175600015
C  2.4325201511 0.0108600007 0.0100000007
C  2.9759702682 1.1296001673 0.8833400607
C  4.3844904900 0.6554200053 1.1930201054
C  4.2346200943 -0.8476300240 1.4097000360
C  2.9661002159 -1.2615201473 0.6625699997
H  0.7239600420 -0.7457900643 -0.5184500217
H  2.8106000423 0.1076200083 -1.0143500566
H  2.3831901550 1.2358001471 1.7997001410
H  2.9617002010 2.0962700844 0.3707700074
H  5.0415802002 0.8438100815 0.3364600241
H  4.8131003380 1.1598501205 2.0644001961
H  5.1155004501 -1.3911000490 1.0530000925
H  4.1225900650 -1.0687201023 2.4774801731
H  3.1789402962 -2.0261900425 -0.0924200118
H  2.2363700867 -1.6955701113 1.3554301262
