12

O  2.1715400219 -0.8177800775 -0.6224100590
C  2.0779101849 0.2165500075 0.0231700018
C  3.1937403679 1.1851700544 0.0649600029
C  3.5722203255 1.9509601593 -1.1778401136
C  2.9013102055 2.6662402153 -0.0330600031
C  3.6629903316 3.5706801414 0.7796700597
N  4.2754802704 4.2944602966 1.4467201233
H  1.1776500940 0.4667400122 0.6084000468
H  4.0203304291 0.8619700074 0.6912200451
H  2.9980304241 1.7771100998 -2.0820302963
H  4.6282505989 2.1211900711 -1.3611301184
H  1.8712401390 2.9674100876 -0.1961300224
