19

C  0.9223200679 -0.2854500115 -0.1255500019
C  2.4236803055 -0.4810400307 -0.2883400023
O  2.6661901474 -1.1862400770 -1.5030301809
C  3.1670701504 0.8576201200 -0.3052900136
C  4.6849904060 0.6701300740 -0.4210000336
C  5.4288406372 2.0004501343 -0.3950600326
O  5.0549402237 2.8063402176 -1.5043601990
H  0.6868500113 0.2200200111 0.8158600926
H  0.4077800214 -1.2522701025 -0.1420200169
H  0.5099000335 0.3039300144 -0.9521300793
H  2.7957704067 -1.1040301323 0.5323000550
H  2.2978901863 -0.6566800475 -2.2312102318
H  2.9374501705 1.4168500900 0.6098100543
H  2.8166604042 1.4572501183 -1.1545001268
H  4.9150004387 0.1506700069 -1.3593901396
H  5.0438003540 0.0426700041 0.4027800262
H  6.5103402138 1.8368802071 -0.4376400411
H  5.2057499886 2.5548901558 0.5211200714
H  5.3061304092 2.3226602077 -2.3102400303
