16

C  1.0308901072 0.0066100000 -0.0518500060
C  2.5213403702 -0.0113500012 -0.0120900003
C  3.3484201431 -0.7489300370 -1.0422401428
C  2.7303402424 -1.5100800991 -2.1653501987
C  3.3141803741 0.7572100759 -1.0390100479
O  4.4963903427 1.4130301476 -0.5605900288
H  0.6470800042 0.7333600521 0.6715800762
H  0.6338500381 -0.9778900743 0.2146400213
H  0.6396700740 0.2812900245 -1.0366500616
H  2.8811903000 -0.0305300020 1.0105700493
H  4.2506504059 -1.2402400970 -0.6943700910
H  1.8688801527 -0.9957600832 -2.6019401550
H  2.4015600681 -2.4939303398 -1.8157701492
H  3.4659302235 -1.6621201038 -2.9616003036
H  2.7703402042 1.2543101311 -1.8367401361
H  4.9289002419 0.9190500379 0.1560200006
