15

C  0.5534300208 0.2779500186 -0.0594300032
C  1.9886502028 0.0754700005 0.3047500253
C  2.9962203503 0.8179800510 -0.1865800172
C  4.4408006668 0.6179299951 0.1500700116
O  5.1417303085 0.4300000370 -1.0689201355
C  4.9449100494 1.8444101810 0.9065700173
O  5.8947906494 2.5231003761 0.5166600347
H  0.1681600213 -0.6125700474 -0.5655300617
H  0.4106400311 1.1375600100 -0.7208800912
H  -0.0395900048 0.4431700408 0.8454800248
H  2.1975200176 -0.7401200533 0.9936200976
H  2.7788002491 1.6135801077 -0.8968800902
H  4.6051406860 -0.2588600218 0.7837400436
H  5.9187307358 1.0225400925 -1.0302600861
H  4.4403200150 2.0608701706 1.8634001017
