18

C  0.9951100945 -0.0139100002 -0.0151500013
C  2.5326101780 -0.0219900012 0.0134000015
C  3.0062701702 -0.7584400773 1.2780901194
C  3.0579102039 -0.7698900700 -1.2238200903
C  3.0371901989 1.4366000891 0.0093900003
O  4.4565100670 1.5142301321 -0.0082300007
H  0.6189400554 0.4932400286 -0.9104200602
H  0.5866800547 0.5044400096 0.8593300581
H  0.5929800272 -1.0329900980 -0.0165900011
H  2.6877202988 -0.2304300219 2.1835103035
H  4.0969700813 -0.8505300879 1.3088001013
H  2.5923101902 -1.7721101046 1.3213201761
H  2.7491002083 -0.2682900131 -2.1474101543
H  2.6730303764 -1.7951201200 -1.2574101686
H  4.1515803337 -0.8281300664 -1.2242901325
H  2.6754903793 1.9850600958 0.8865500689
H  2.6723501682 1.9646701813 -0.8785200715
H  4.7799701691 1.2178500891 0.8588900566
