16

C  0.9840400815 0.0374300033 0.0693100020
C  2.4963903427 -0.0704100057 0.0176400021
N  3.1738202572 0.9726700783 0.8400200605
C  4.1845302582 -0.0435700044 1.2381900549
C  3.1486303806 -1.1446501017 0.9272900224
N  3.7541103363 -2.2087700367 0.1234200075
H  0.5245300531 -0.8155500889 -0.4399100542
H  0.6410300732 0.9484300613 -0.4323800206
H  0.6074300408 0.0540100038 1.0987401009
H  2.8543703556 -0.0632300079 -1.0219700336
H  2.6148900986 1.2997900248 1.6289101839
H  5.0791902542 -0.0197900012 0.6035400629
H  4.5023102760 0.0205100011 2.2836101055
H  2.5554201603 -1.4765301943 1.7858301401
H  4.3321900368 -1.8728700876 -0.6470100880
H  3.0720801353 -2.8387002945 -0.2956500053
