19

C  0.9835901260 -0.1573000103 0.7291401029
C  2.4978702068 -0.0261900015 0.8780200481
N  3.0236701965 1.2986500263 0.5008400083
C  2.4451901913 2.3640902042 1.3264101744
C  4.4942803383 1.3449500799 0.6102800369
C  5.2059903145 0.5045800209 -0.4455800354
H  0.6865100265 -1.2029299736 0.8625200391
H  0.6537700295 0.1606100053 -0.2650500238
H  0.4487300217 0.4300600290 1.4814701080
H  2.9352803230 -0.7904100418 0.2265600115
H  2.7806901932 -0.2807800472 1.9074902534
H  1.3673400879 2.4566602707 1.1582601070
H  2.8679401875 3.3387103081 1.0541200638
H  2.6227202415 2.1999902725 2.3951501846
H  4.8252205849 1.0420100689 1.6120400429
H  4.8344902992 2.3783202171 0.4638400376
H  5.0490503311 -0.5669300556 -0.2947800159
H  6.2851204872 0.6852400303 -0.3970000148
H  4.8681201935 0.7689600587 -1.4529601336
