13

C  0.0652500018 0.9094300866 -0.1211800054
N  -0.7268500328 -0.2996700406 0.0258500017
C  0.7351300716 -0.4403200448 -0.0064800004
C  1.4500001669 -0.9005000591 1.2525401115
C  1.1626000404 -2.2167601585 1.9317702055
O  2.2977802753 -2.0508601665 1.0782101154
H  0.0429000035 1.3960100412 -1.0879801512
H  0.0845000073 1.5716301203 0.7352400422
H  -1.1271901131 -0.5932599902 -0.8671800494
H  1.1338100433 -0.8505400419 -0.9327200651
H  1.8422800303 -0.1097600088 1.8857101202
H  0.3341700137 -2.8101401329 1.5659000874
H  1.3385001421 -2.2904202938 2.9969801903
