17

N  2.6903600693 -1.4330101013 -0.8655700684
C  1.9510601759 -0.2664900422 -0.3838600218
C  2.9004802704 0.7670400739 0.1547700018
C  3.5834302902 0.4974800348 1.4674601555
N  2.6154601574 0.5370900631 2.5606203079
C  3.5189304352 1.7591401339 -0.8098700643
O  2.4158301353 2.1216399670 0.0295900013
H  2.0281801224 -2.0708901882 -1.3063800335
H  3.0472102165 -1.9416601658 -0.0563800037
H  1.2258000374 -0.5709000230 0.3782300353
H  1.3769900799 0.1446300000 -1.2226001024
H  4.3618602753 1.2450500727 1.6587901115
H  4.0766901970 -0.4794400334 1.4508399963
H  2.1538302898 1.4484701157 2.5345401764
H  3.1160402298 0.5034000278 3.4470603466
H  3.3281903267 1.6389801502 -1.8696001768
H  4.4870705605 2.1851201057 -0.5795300603
