19

C  0.9989801049 0.0630300045 0.1393000036
C  2.4917402267 -0.0993300080 -0.0544900037
O  3.2283701897 0.9548900723 0.6256800294
C  4.1680803299 -0.0221700016 1.1575700045
C  5.5082702637 0.0931900069 0.4533000290
C  3.1974701881 -1.1727000475 0.7990000248
C  3.7091102600 -2.3973903656 0.0695700049
H  0.4623700380 -0.7930200696 -0.2818800211
H  0.6407100558 0.9656200409 -0.3659000099
H  0.7352400422 0.1420000196 1.1989300251
H  2.7617900372 -0.1151400059 -1.1183100939
H  4.2827301025 0.1062200069 2.2410800457
H  5.4006304741 0.0627500042 -0.6359300613
H  6.1735801697 -0.7220600247 0.7540900707
H  5.9971404076 1.0375701189 0.7141800523
H  2.6058800220 -1.4794601202 1.6728801727
H  4.2670803070 -2.1358501911 -0.8347000480
H  2.8746902943 -3.0405802727 -0.2285100222
H  4.3679604530 -2.9834601879 0.7182100415
