10

C  2.0402102470 0.0544500053 0.5276100636
O  1.5180501938 0.5847000480 -0.7233700156
C  2.5104200840 1.4918200970 -0.7580300570
C  2.5424799919 2.8455202579 -0.8174600601
O  3.2010102272 3.2716002464 0.3159100115
N  3.4212803841 2.1673200130 1.1737000942
C  3.0604703426 1.1165001392 0.4420000315
H  2.4097802639 -0.9674000740 0.4008100331
H  1.3456600904 0.1128300056 1.3699400425
H  2.0798902512 3.6203403473 -1.4077100754
