15

O  0.4914400578 0.1018800065 -0.3186400235
C  1.8793902397 -0.0890600011 -0.0015900001
C  2.6336302757 -0.9977700710 -0.9243801236
C  2.8644602299 0.4865800142 -0.9870800972
N  4.1429405212 1.0338801146 -0.5104300380
N  3.9142804146 2.3267500401 -0.1907400191
C  4.9490699768 2.9133801460 0.3142100275
H  0.2225100249 1.0094799995 -0.0917900056
H  2.1604301929 -0.0915800035 1.0466700792
H  2.0857701302 -1.4606201649 -1.7357301712
H  3.4001903534 -1.6261401176 -0.4877200127
H  2.4492900372 0.9969500899 -1.8538302183
H  4.8498401642 0.9447700381 -1.2452900410
H  4.8818507195 3.9716203213 0.6108300686
H  5.9187307358 2.4120202065 0.4772700369
