16

O  0.4415900409 0.8781800270 0.8936600685
N  1.8168301582 0.6601800919 1.0338901281
C  2.4305200577 1.2228900194 0.0446800068
C  3.9263703823 1.1558001041 -0.0730800107
C  4.5116500854 2.5565001965 0.0657000020
C  6.0071506500 2.5399200916 -0.0703400075
C  6.6818404198 3.1852703094 -1.0302700996
H  0.0758000091 0.4078800380 1.6663600206
H  1.8859502077 1.7736401558 -0.7433200479
H  4.1639003754 0.7331100702 -1.0557200909
H  4.3262205124 0.4851100445 0.6960100532
H  4.2532501221 2.9733803272 1.0467001200
H  4.0615005493 3.2240102291 -0.6797300577
H  6.5636906624 1.9717601538 0.6735000610
H  6.1764602661 3.7720701694 -1.7910401821
H  7.7662606239 3.1400702000 -1.0720300674
