10

O  2.6512601376 -1.1175301075 0.0847000107
C  2.1223001480 -0.0102700004 0.0158300009
C  2.8677601814 1.2416701317 -0.0067100003
N  2.2007203102 2.3985402584 -0.0833800063
S  3.2826802731 3.6524403095 -0.0921500102
C  4.6850900650 2.6808202267 0.0069200005
C  4.2978801727 1.3599100113 0.0471400023
H  1.0254100561 0.0925500095 -0.0337100029
H  5.6787204742 3.1055002213 0.0297700018
H  4.9817700386 0.5231500268 0.1108900085
