16

C  2.3142101765 -0.5430999994 -1.4287301302
C  2.2832503319 0.0867700130 -0.0452500023
C  3.2260103226 1.2759701014 0.0110200010
C  2.7879102230 2.5916001797 -0.6795500517
C  3.0906403065 3.2245602608 0.6900400519
O  3.3345503807 4.3146305084 1.1404501200
N  3.0929102898 2.0005202293 1.2885700464
H  1.6630201340 -1.4219601154 -1.4618700743
H  3.3288102150 -0.8580200672 -1.6942801476
H  1.9728902578 0.1643000096 -2.1913602352
H  2.5878002644 -0.6639900804 0.6935400367
H  1.2555000782 0.3823500276 0.1966400146
H  4.2740702629 1.0047700405 -0.1730000228
H  1.7363901138 2.6669402122 -0.9702600837
H  3.4357202053 2.9311001301 -1.4900001287
H  3.6424503326 1.8971201181 2.1311001778
