15

C  2.3676202297 -1.0669900179 -0.5678600073
N  3.6755402088 -0.4608400464 -0.3450900316
N  3.6897504330 0.8944100738 -0.3052100241
C  4.8755002022 1.3913201094 -0.1786400229
C  4.9974803925 2.8553302288 -0.1311200112
C  4.7128601074 3.6036803722 1.1433800459
O  6.0539608002 3.3287501335 0.7211501002
H  2.4697000980 -2.1542501450 -0.6289200783
H  1.9329401255 -0.7163300514 -1.5089900494
H  1.6813000441 -0.8293300867 0.2504700124
H  4.0864901543 -0.8683601022 0.4992000163
H  5.7990903854 0.7885200381 -0.1144100130
H  4.8438405991 3.3728802204 -1.0699901581
H  4.3258800507 3.0537602901 1.9918401241
H  4.3613200188 4.6245403290 1.0675500631
