10

C  1.0000001192 0.0000000000 0.0000000000
C  2.4440002441 0.0000000000 0.0000000000
C  3.6341602802 0.0000000000 0.0000000000
C  5.1655306816 -0.0001000000 -0.0003900000
C  6.3655405045 0.0000100000 0.0000100000
C  7.8970007896 -0.0001500000 -0.0005700001
N  9.0571413040 -0.0001200000 -0.0005000000
H  0.6059000492 1.0207500458 -0.0182900019
H  0.6058800817 -0.4945600331 0.8931201100
H  0.6059300303 -0.5262000561 -0.8748800755
