20

C  0.9508000612 -0.0031900003 0.0287100021
C  2.4654700756 -0.0093600005 -0.0072300006
C  3.1899802685 1.0097600222 0.9039000869
N  4.1661405563 -0.0431200005 1.2837700844
C  5.3552203178 0.0558400042 0.4382200241
C  3.1867802143 -1.0795201063 0.8531700373
C  3.7288601398 -2.3143401146 0.1559500098
H  0.5510600805 -0.8655400872 -0.5132800341
H  0.5594300032 0.9028400779 -0.4442000091
H  0.5691800117 -0.0412300043 1.0540000200
H  2.8259003162 0.0277000014 -1.0452201366
H  2.5934600830 1.3575600386 1.7572201490
H  3.5916702747 1.8937702179 0.3962700367
H  6.0153503418 -0.8008000255 0.6107400060
H  5.9264707565 0.9502601027 0.7130800486
H  5.1423707008 0.1180800125 -0.6352600455
H  2.5738801956 -1.4069201946 1.7075901031
H  4.2722501755 -2.0788700581 -0.7646600604
H  2.9037003517 -2.9801101685 -0.1215300038
H  4.3953104019 -2.8769302368 0.8185900450
