17

C  0.8998500705 -0.0189600028 0.1068400070
C  2.4172101021 -0.0054000001 -0.0351500027
C  2.8476500511 0.0206700005 -1.5025401115
C  3.1371002197 1.0290200710 0.8661800623
N  4.1228504181 -0.0105900010 1.2335700989
C  3.1575603485 -1.0562400818 0.8300300837
H  0.5922300816 -0.0389700010 1.1579800844
H  0.4697200358 -0.8998200297 -0.3812900186
H  0.4577600360 0.8725400567 -0.3506100178
H  3.9378204346 0.0340000018 -1.6098901033
H  2.4543402195 0.9091300964 -2.0065701008
H  2.4743001461 -0.8627300858 -2.0315201283
H  2.5543503761 1.3839300871 1.7252601385
H  3.5612204075 1.9008800983 0.3592300117
H  4.9576201439 0.0079800002 0.6469200253
H  3.5995700359 -1.9012202024 0.2931200266
H  2.5819501877 -1.4524700642 1.6753201485
