21

C  2.8511302471 -0.7559300661 -1.0667200089
C  2.4744000435 0.0256100018 0.1851500124
C  3.0756201744 1.4511501789 0.2439800054
C  2.5504400730 2.2124199867 1.4831701517
N  1.0934700966 2.3592200279 1.4714901447
C  4.6190505028 1.4008899927 0.2573500276
N  5.2222499847 2.7321600914 0.2406400144
H  2.2795102596 -1.6889001131 -1.1107699871
H  3.9112601280 -1.0245801210 -1.0722200871
H  2.6302900314 -0.1811000109 -1.9715201855
H  2.7806801796 -0.5458100438 1.0698900223
H  1.3802301884 0.0860500038 0.2133500129
H  2.7554402351 1.9933001995 -0.6572200060
H  2.9865803719 3.2158503532 1.5323801041
H  2.8428401947 1.6844601631 2.3979899883
H  0.8192501068 2.9000101089 0.6523400545
H  0.8121000528 2.9114000797 2.2808799744
H  4.9927306175 0.8606200814 -0.6176400185
H  4.9684805870 0.8645401001 1.1467001438
H  4.9624605179 3.2119803429 -0.6208200455
H  6.2375402451 2.6396102905 0.2159000188
