15

C  0.8971101046 0.0986100063 -0.2647100389
C  2.3876602650 -0.0526600033 -0.1128200069
N  3.0406901836 -1.1758600473 -0.0534300059
N  2.2896702290 -2.3001902103 -0.0964700058
C  3.1956303120 1.1869901419 -0.0537800044
C  2.8184602261 2.3477301598 0.8343000412
O  3.8336102962 1.4189502001 1.2180501223
H  0.6287800670 1.1347600222 -0.4866700470
H  0.4063000381 -0.2033200115 0.6648000479
H  0.5358600616 -0.5285900235 -1.0845800638
H  2.9074103832 -3.1034600735 -0.2428800166
H  1.8652300835 -2.4750401974 0.8184800744
H  3.7843801975 1.3939800262 -0.9391700625
H  1.8887901306 2.3199801445 1.3876100779
H  3.1358902454 3.3400800228 0.5396400690
