12

O  2.2071101665 -1.1080901623 0.0756300092
C  1.9519001245 0.0773800015 -0.1209200099
C  2.9464101791 1.2013701200 0.0104400003
C  4.3084502220 0.7432500720 0.4141200483
C  5.4326004982 0.6214700341 -0.5810100436
O  5.3187804222 1.7537702322 0.2932200432
H  0.9331500530 0.3879300356 -0.4124100208
H  2.5575203896 1.8952702284 0.7630900741
H  2.9732403755 1.7281401157 -0.9500600696
H  4.3195400238 0.1249600053 1.3025001287
H  5.2287101746 0.7779800892 -1.6325401068
H  6.2221403122 -0.0909100026 -0.3759200275
