17

C  1.9920500517 -0.4077300429 1.2739500999
C  2.3695499897 0.1374300122 -0.0960700065
O  1.2402701378 0.1171000153 -0.9578600526
C  2.9873902798 1.5372201204 0.0401800014
C  2.0482201576 2.7148001194 0.1983800083
N  4.2886805534 1.6293401718 0.0161700025
N  4.8052501678 2.8738801479 0.1107600033
H  2.8565902710 -0.4309400320 1.9449701309
H  1.5871900320 -1.4213401079 1.1842100620
H  1.2140001059 0.2035000175 1.7445200682
H  3.1224501133 -0.5207200646 -0.5443400145
H  0.4705400467 0.4505000412 -0.4677400589
H  1.0597800016 2.3809301853 0.5229600072
H  1.9501401186 3.2249903679 -0.7638900280
H  2.4245502949 3.4156703949 0.9483100772
H  5.8221502304 2.8096902370 0.2077900171
H  4.6600403786 3.3929402828 -0.7592700124
