15

C  0.9662400484 -0.0096100010 0.0258500017
C  2.4829499722 0.0163700003 0.0352200046
C  3.1322002411 1.0983800888 0.9387201071
S  4.4704203606 -0.0079800002 1.2864600420
O  4.7586402893 -0.0695500001 2.7024402618
O  5.4998703003 0.0578400046 0.2697300315
C  3.1709303856 -1.1226800680 0.8341700435
H  0.5994300246 -0.8685200810 -0.5452700853
H  0.5683600307 0.8981800675 -0.4389600456
H  0.5584200621 -0.0777400061 1.0397400856
H  2.8586902618 0.0722000003 -0.9974101186
H  2.5687100887 1.3571001291 1.8412700891
H  3.4372200966 2.0129201412 0.4238200486
H  3.5066702366 -1.9738101959 0.2362000197
H  2.6185801029 -1.4844801426 1.7074202299
