22

C  3.6057701111 -1.2145501375 -0.0229300018
C  2.6266300678 -0.2086300105 0.5729600191
N  3.1704101562 1.1534000635 0.7122100592
C  2.0937800407 2.0724301338 1.0915001631
C  4.3709306717 1.2489900589 1.5718200207
C  4.9991602898 2.6502401829 1.5194101334
C  4.1638002396 0.8314000964 3.0335602760
H  3.0862002373 -2.1541602612 -0.2403700203
H  4.4233002663 -1.4482700825 0.6657400727
H  4.0318703651 -0.8439700603 -0.9612801075
H  2.2464501858 -0.5880200267 1.5286500454
H  1.7667500973 -0.1734700203 -0.1087800115
H  1.2702701092 2.0144801140 0.3695500195
H  2.4242401123 3.1152403355 1.0710700750
H  1.6843101978 1.8524101973 2.0829102993
H  5.1367702484 0.5876700878 1.1496000290
H  4.4010605812 3.3934402466 2.0565102100
H  5.1254005432 2.9867403507 0.4846800268
H  5.9927606583 2.6374902725 1.9820201397
H  3.4347503185 1.4692901373 3.5432202816
H  5.1068201065 0.9062101245 3.5873203278
H  3.8288502693 -0.2072900236 3.1145501137
