16

C  1.1850200891 -0.1612200141 0.0026100001
N  2.6439800262 -0.1175700128 -0.0395400040
C  3.1979701519 -0.5533900261 -1.3170701265
C  3.1679501534 0.9136300683 -0.9407901168
C  4.4252705574 1.6307801008 -0.5545100570
C  4.9872603416 2.0980901718 -1.8280900717
C  5.4559001923 2.4847002029 -2.8649003506
H  0.8184200525 0.5560200810 0.7442500591
H  0.8574900627 -1.1581801176 0.3149400353
H  0.6979300380 0.0669100061 -0.9534201026
H  2.5229501724 -0.9007900953 -2.0897300243
H  4.1416702271 -1.0832700729 -1.2649101019
H  2.4477901459 1.5635601282 -1.4272401333
H  5.1323504448 0.9760900736 -0.0342300013
H  4.1911001205 2.4750204086 0.1015200093
H  5.8736701012 2.8277201653 -3.7835903168
