12

C  0.9625700712 -0.0309100021 0.0000000000
C  2.2995402813 -0.0069400002 0.0000000000
C  3.0170402527 1.2176301479 0.0000000000
C  3.6121203899 2.2483401299 0.0000000000
C  4.3341202736 3.4988803864 0.0000000000
C  3.7308902740 4.8108506203 0.0000000000
N  3.2500600815 5.8566102982 0.0000000000
H  0.4259900153 -0.9744501114 0.0000100000
H  0.3729100227 0.8809800744 0.0000100000
H  2.8630602360 -0.9345201254 -0.0000000000
H  5.0123705864 3.4682004452 -0.8649700880
H  5.0123705864 3.4682004452 0.8649700880
