15

C  3.6984603405 -0.9465500712 -1.5837901831
S  2.9872303009 -0.3883400261 -0.0520200059
O  1.5447801352 -0.4341700375 -0.2101700157
O  3.6266901493 -1.1174200773 1.0287101269
C  3.4619202614 1.3399101496 0.0501600057
C  4.9571104050 1.4740802050 0.0796700045
C  5.6685905457 2.1965200901 -0.7960500121
H  4.7864603996 -0.9169100523 -1.5111300945
H  3.3428401947 -0.3044800460 -2.3916401863
H  3.3691501617 -1.9739900827 -1.7535600662
H  3.0292203426 1.7345501184 0.9741100669
H  3.0081901550 1.8558501005 -0.8011600375
H  5.4786601067 0.9570400715 0.8860800266
H  5.2013802528 2.7461602688 -1.6083301306
H  6.7505202293 2.2622900009 -0.7096000314
