20

C  0.9197200537 0.0131600006 0.0780500025
C  2.4336302280 0.0295000020 0.0228600018
C  3.1482701302 1.0478200912 0.9451500773
C  4.2266101837 -0.0342300013 1.2231600285
C  5.4852404594 -0.0070000007 0.3591900170
N  6.3605904579 1.0874401331 0.7695600390
C  3.1663501263 -1.0872400999 0.8050200343
H  0.5241000056 -0.8404101133 -0.4811400473
H  0.5089000463 0.9256000519 -0.3654300272
H  0.5530300736 -0.0574100055 1.1072800159
H  2.7815003395 0.1010300070 -1.0170500278
H  2.5763401985 1.3255500793 1.8392701149
H  3.4876701832 1.9636502266 0.4533400238
H  4.4909901619 -0.1145900115 2.2862002850
H  5.2416300774 0.1008100063 -0.7034400702
H  6.0297904015 -0.9497500658 0.4769700468
H  5.9028902054 1.9794101715 0.5840400457
H  7.2016806602 1.0786300898 0.1932800114
H  3.5264701843 -1.9250301123 0.2007600218
H  2.5999403000 -1.4897201061 1.6541301012
