11

C  0.3955600262 1.5273401737 0.5054700375
C  0.8744200468 0.3486500084 -0.2898600101
O  0.9224900603 -0.9408500791 0.3666100204
N  -0.4302300513 -1.3761001825 0.5470000505
C  -1.2397800684 -0.4445800185 0.1614800096
C  -0.5655700564 0.7467001081 -0.3512099981
H  0.6896400452 2.5144002438 0.1707700044
H  0.3372100294 1.4205801487 1.5826201439
H  1.5023901463 0.5131600499 -1.1549700499
H  -2.3354301453 -0.5164500475 0.1972700208
H  -0.9339600205 1.1824200153 -1.2688701153
