19

C  2.9085102081 -0.9186400771 -0.5904800296
C  2.6332001686 -0.0046600001 0.5971900225
C  3.3271801472 1.3663899899 0.4886400104
C  2.8670301437 2.2758800983 1.6440401077
O  3.3135004044 3.6168203354 1.4576901197
C  4.8367204666 1.2156900167 0.5074900389
C  5.6441702843 1.6344702244 -0.4762200117
H  2.3415601254 -1.8494300842 -0.4859100580
H  3.9681103230 -1.1822600365 -0.6605300307
H  2.6067502499 -0.4427900314 -1.5289601088
H  2.9389803410 -0.5142000318 1.5194901228
H  1.5481401682 0.1446900070 0.6660100818
H  3.0266702175 1.8418701887 -0.4545900524
H  3.2338402271 1.9202401638 2.6136302948
H  1.7735401392 2.3085100651 1.6920101643
H  4.2794899940 3.5834503174 1.3408401012
H  5.2768406868 0.7319700718 1.3779401779
H  5.2551507950 2.1179101467 -1.3676701784
H  6.7190504074 1.4948902130 -0.4122000039
