12

C  1.0000001192 0.0000000000 0.0000000000
C  2.1901600361 0.0000000000 0.0000000000
C  3.6341602802 0.0000000000 0.0000000000
C  4.1434001923 1.4110300541 -0.0225200020
C  4.8403601646 1.9760301113 0.9767900705
C  5.3079504967 3.3168702126 0.9109800458
N  5.6955504417 4.4088802338 0.8605700135
H  -0.0659500062 0.0024800003 -0.0002000000
H  4.0187602043 -0.5258600116 -0.8811001182
H  4.0127902031 -0.5381500125 0.8767400384
H  3.9253602028 1.9860901833 -0.9222900271
H  5.0681900978 1.4237401485 1.8818300962
