18

C  0.9173200727 -0.0430400036 -0.0090700006
C  2.3916001320 -0.2244000137 -0.1275900155
C  3.0264103413 -0.4501800239 -1.4784901142
N  3.1714704037 0.8255200982 -0.7756300569
C  4.4921603203 1.0223101377 -0.1691800207
C  5.2789902687 2.0031201839 -0.9885000587
C  6.4832105637 1.7658802271 -1.5257902145
H  0.6824000478 0.5857100487 0.8561500907
H  0.4292100370 -1.0125100613 0.1330100000
H  0.4829500318 0.4275700152 -0.8983901143
H  2.8147702217 -0.7248900533 0.7353900671
H  2.3996603489 -0.4259800315 -2.3616199493
H  3.8821501732 -1.1106001139 -1.5466802120
H  5.0539002419 0.0872600079 -0.0383000039
H  4.3602004051 1.4504001141 0.8323500752
H  4.8169302940 2.9766502380 -1.1382701397
H  6.9839105606 0.8107500672 -1.4087901115
H  6.9877805710 2.5318403244 -2.1074602604
