14

N  1.7664101124 -1.7021101713 0.2109300047
C  2.2543802261 -0.6444000006 0.9166200757
O  1.8637701273 -0.3915800452 2.0498802662
C  3.3356201649 0.1466500163 0.2182000279
C  4.7107205391 -0.3699800372 0.6084800363
C  5.0363507271 -1.7052201033 -0.0169900022
O  4.3117203712 -2.2909002304 -0.8179000616
H  2.3432500362 -2.1155300140 -0.5212400556
H  1.1294600964 -2.3201801777 0.6949400306
H  3.2254102230 1.1941000223 0.5215000510
H  3.1822102070 0.1108300090 -0.8666501045
H  4.7979302406 -0.4796100259 1.6941400766
H  5.4792203903 0.3345700204 0.2730700076
H  6.0037803650 -2.1416900158 0.2869600058
