15

C  1.0102300644 0.0471900031 0.0080500003
C  2.5203001499 0.0319300033 -0.0194200017
N  3.1227903366 1.1822701693 0.0032800003
C  4.4903106689 1.1508600712 -0.0228400007
C  5.2164301872 0.0272700023 -0.0091500012
C  4.5795702934 -1.3176001310 0.0288300030
N  3.1482203007 -1.1877800226 -0.0715200081
H  0.6039800644 -0.9674900770 0.0040600002
H  0.6391100287 0.5835100412 -0.8700401187
H  0.6701400280 0.5643000603 0.9099100828
H  4.9801306725 2.1207602024 -0.0488500036
H  6.2983803749 0.0820700079 -0.0244400017
H  4.9475603104 -1.9261602163 -0.8032801151
H  4.8413705826 -1.8252301216 0.9628200531
H  2.6016302109 -2.0338602066 0.0139500014
