8

N  1.0279400349 0.0145600010 0.0000000000
C  2.3855700493 -0.0573200062 -0.0000000000
O  2.9964101315 -1.1152499914 0.0000000000
C  3.0854701996 1.2031401396 -0.0000000000
C  3.6689205170 2.2542202473 -0.0000000000
H  0.5364600420 0.8958600760 -0.0000000000
H  0.5071500540 -0.8506200314 0.0000000000
H  4.1972303391 3.1787502766 -0.0000000000
