12

C  1.0236101151 0.0129300011 -0.0753600001
C  2.5108401775 -0.0457600020 0.0023700004
C  3.2962903976 -0.7343400717 -1.0809700489
C  3.3556103706 0.7629400492 -0.9451100826
H  0.6418600678 0.7871500850 0.5983400345
H  0.5920600295 -0.9454800487 0.2294000238
H  0.6710400581 0.2396500260 -1.0868000984
H  2.8565802574 -0.1594900042 1.0233100653
H  2.7634003162 -1.1471601725 -1.9289401770
H  4.1702103615 -1.3054401875 -0.7867900729
H  4.2688302994 1.2028000355 -0.5609300733
H  2.8636603355 1.3592101336 -1.7055701017
