15

C  1.3227801323 -0.8383200765 -0.0528200008
C  2.8225102425 -0.7116100788 0.0147400014
O  3.5402600765 -1.7067900896 0.0993400067
C  3.3777601719 0.6968700290 -0.0342000015
C  4.8996005058 0.7105301023 0.0399100035
C  5.4143905640 2.0882301331 -0.0066900006
C  5.8386406898 3.2100701332 -0.0442400016
H  0.8705900311 -0.2898600101 0.7771600485
H  1.0376100540 -1.8912301064 0.0241600014
H  0.9647901058 -0.4429200292 -1.0065100193
H  2.9518902302 1.2591301203 0.8051700592
H  3.0386800766 1.1635301113 -0.9665101171
H  5.3221001625 0.1331300139 -0.7911300659
H  5.2358903885 0.2248600125 0.9637901187
H  6.2204403877 4.2043004036 -0.0772700012
