17

C  1.4215401411 -0.4651700258 0.0322099999
C  2.7395403385 -0.2356900126 0.0624500029
C  3.3046803474 1.0909500122 0.0190600026
C  4.6257004738 1.3297101259 0.0417999998
C  5.2478103638 2.6570000648 0.0095600011
C  6.4302406311 2.8779702187 -0.8972401023
C  5.1072306633 3.5041902065 -1.2280801535
H  1.0384800434 -1.4800801277 0.0665400028
H  0.6958600283 0.3396899998 -0.0275900010
H  3.4225902557 -1.0802700520 0.1216600090
H  2.6164300442 1.9317601919 -0.0373500027
H  5.3124003410 0.4873400331 0.1057700142
H  5.2591004372 3.1707501411 0.9665101171
H  6.7731604576 2.0642302036 -1.5262800455
H  7.2242002487 3.5261602402 -0.5440400839
H  5.0036005974 4.5752501488 -1.0968900919
H  4.5592107773 3.1096301079 -2.0765101910
