19

C  0.8644400239 -0.2396400273 -0.2067600191
C  2.3882703781 -0.1896300167 -0.1453800052
C  2.9968202114 -1.2366100550 -1.0762200356
N  2.8553202152 1.1289700270 -0.5487100482
C  2.7353203297 2.2722201347 0.1997600049
C  2.7482101917 3.5869503021 -0.5456700921
N  2.6223301888 2.3152601719 1.4824900627
H  0.4188200235 0.4811900258 0.4876100421
H  0.4944400489 -1.2349901199 0.0612000078
H  0.4976200163 0.0018500001 -1.2112501860
H  2.7205302715 -0.4179100394 0.8730500937
H  2.7037403584 -1.0661100149 -2.1186001301
H  2.6749401093 -2.2444803715 -0.7934800386
H  4.0913205147 -1.2059100866 -1.0319300890
H  2.8285102844 1.2779899836 -1.5535601377
H  3.7155902386 3.7128701210 -1.0396900177
H  2.5822203159 4.4237704277 0.1381400079
H  1.9585301876 3.5825800896 -1.3022100925
H  2.6627302170 1.3725401163 1.8671702147
