9

C  0.9014300704 0.1012300104 0.0018800001
C  2.1002001762 0.0609100051 -0.0005700001
C  3.5237503052 0.0189900026 -0.0034900003
N  4.2664804459 1.1055400372 -0.0089000007
C  5.5942101479 0.7095100284 -0.0103500010
N  5.9166603088 -0.5837700367 -0.0065200003
S  4.4648804665 -1.4177300930 -0.0004800000
H  -0.1637900174 0.1459300220 0.0040200003
H  6.3869504929 1.4475600719 -0.0146700013
