17

C  1.0192301273 -0.1357200146 0.2365000099
C  2.4967403412 0.0492600054 -0.0860100016
C  2.7937302589 0.0728600100 -1.5872700214
O  2.2095901966 1.2255001068 -2.1934101582
C  3.2094001770 1.1353000402 0.7412800789
C  4.0343103409 -0.0157900024 1.3059401512
O  3.2736504078 -0.9966000319 0.5639300346
H  0.8578701019 -0.2516600192 1.3143701553
H  0.6179800630 -1.0291900635 -0.2555300295
H  0.4316000342 0.7271500826 -0.0946000069
H  2.4092202187 -0.8222600818 -2.0892701149
H  3.8727602959 0.1171100140 -1.7715001106
H  1.2623901367 1.0401201248 -2.3149101734
H  2.5903301239 1.6514700651 1.4804201126
H  3.7859103680 1.8708502054 0.1739900112
H  5.0882406235 -0.0242800005 1.0131800175
H  3.9451804161 -0.1693800092 2.3849701881
