16

C  2.1251201630 -0.7749900818 -1.1675101519
C  2.8891701698 -0.2538400292 0.0395800024
C  3.0143001080 1.2418200970 0.0054000001
C  4.1891603470 1.8895400763 -0.0443900004
C  4.2862806320 3.3289601803 -0.0689100027
C  5.4547705650 3.9789602757 -0.1174400076
H  2.0330300331 -1.8645501137 -1.1146501303
H  2.6405501366 -0.5238300562 -2.1005501747
H  1.1154099703 -0.3529300392 -1.2111600637
H  3.8752701283 -0.7313100696 0.0756100118
H  2.3614900112 -0.5409000516 0.9561601281
H  2.0833802223 1.8034400940 0.0346700028
H  5.1177306175 1.3236101866 -0.0681400076
H  3.3625001907 3.9031803608 -0.0460000001
H  6.4061703682 3.4573903084 -0.1417500079
H  5.4805102348 5.0639905930 -0.1340100020
