20

C  0.9182200432 0.1480100155 0.0589300059
C  2.4220302105 -0.0821900070 0.0480100028
C  3.1872701645 1.2403700352 -0.0334400013
C  4.6869602203 1.0328700542 -0.0341500044
C  5.3860702515 1.0459101200 -1.1830201149
C  5.3583202362 0.8117000461 1.2959401608
N  5.2623305321 2.0042002201 2.1259901524
H  0.3879300356 -0.8092000484 0.0913900062
H  0.5955700278 0.6847000718 -0.8393200636
H  0.6184900403 0.7322500944 0.9350700378
H  2.6792600155 -0.7159900069 -0.8094300628
H  2.7028803825 -0.6343000531 0.9520400763
H  2.8990001678 1.8943802118 0.7980600595
H  2.8856401443 1.7727000713 -0.9449000359
H  4.8973002434 1.2018700838 -2.1398401260
H  6.4613204002 0.8981300592 -1.1988201141
H  6.4167108536 0.5561100245 1.1645301580
H  4.8924608231 -0.0334500000 1.8135901690
H  5.7237305641 2.7729401588 1.6414301395
H  5.7890005112 1.8539201021 2.9838302135
