13

C  0.9573000669 -0.0296400022 0.0051700003
C  2.4769902229 -0.0083699999 0.0045500007
C  3.0160102844 1.4168601036 0.0085800011
C  4.5250201225 1.4668201208 0.0071600005
O  5.2571406364 0.4837000370 -0.0043600001
H  0.5923800468 -1.0615800619 0.0037200002
H  0.5576200485 0.4731800258 -0.8813600540
H  0.5582399964 0.4704900384 0.8934800625
H  2.8460800648 -0.5459500551 -0.8771400452
H  2.8469400406 -0.5509000421 0.8828600645
H  2.6697301865 1.9544901848 0.8979800344
H  2.6677203178 1.9609001875 -0.8761100769
H  4.9556708336 2.4830503464 0.0160000008
