18

C  2.0161402225 -1.1527800560 -0.5455500484
C  3.1026003361 -0.8637000918 0.4830400348
C  3.7534301281 0.5146900415 0.2985500395
N  4.6362705231 0.7696800828 1.4570301771
C  5.0929903984 2.1540701389 1.5115500689
C  4.5549101830 0.5302100182 -1.0046900511
O  5.7661004066 0.3366000354 -1.0831300020
H  1.5540502071 -2.1237001419 -0.3394300044
H  2.4219303131 -1.1877300739 -1.5609201193
H  1.2316200733 -0.3903900385 -0.5117500424
H  3.8607802391 -1.6554200649 0.4247700274
H  2.6494700909 -0.9269101024 1.4806301594
H  2.9794101715 1.2892200947 0.2418600172
H  5.4585604668 0.1656700075 1.3635700941
H  4.2499103546 2.8519201279 1.5356601477
H  5.7418003082 2.4078400135 0.6676600575
H  5.6697807312 2.3060002327 2.4293301105
H  3.9551703930 0.6927000284 -1.9172900915
