12

O  1.2076700926 0.4593900144 -0.9089500904
C  2.0725500584 0.2317900211 -0.0695000067
C  3.1899304390 1.1719300747 0.1770800054
N  3.6804802418 1.8904501200 -1.0075200796
C  2.9843001366 2.6578502655 0.0270500015
C  3.7572400570 3.5437703133 0.8445500731
C  4.4036302567 4.2895803452 1.5289402008
H  2.0622901917 -0.6839900613 0.5437400341
H  3.9581003189 0.8248700500 0.8580900431
H  3.0424304008 1.7351402044 -1.7953602076
H  1.9925501347 3.0088300705 -0.2444900274
H  4.9831700325 4.9533405304 2.1271100044
