15

C  1.6703201532 -0.1343699992 -0.1548000127
C  0.8200800419 -1.1851400137 0.5494700670
N  -0.4173400402 -1.4278700352 -0.1619500071
C  -1.3947401047 -0.4690700173 -0.2814400196
N  -1.3911201954 0.8086400628 -0.0732300058
O  -0.1692900211 1.3095600605 0.4246400297
C  0.8901600242 1.1244701147 -0.5138900280
H  2.1281101704 -0.5442100167 -1.0630000830
H  2.4985501766 0.1327500045 0.5131200552
H  1.3885400295 -2.1202301979 0.6080500484
H  0.6035500169 -0.8872700334 1.5825301409
H  -0.7545500398 -2.3836703300 -0.1081100032
H  -2.3355002403 -0.9101600647 -0.6533400416
H  1.5474101305 1.9991301298 -0.4658100307
H  0.5029900670 1.0759999752 -1.5395501852
