18

C  2.3195800781 -0.8158200979 -0.9114600420
O  1.9579701424 0.4360900223 -0.3446700275
C  3.0970902443 1.2868000269 -0.1010600105
C  3.3892202377 2.3612999916 -1.1170700788
C  2.6001200676 2.4870302677 -2.3758301735
C  2.7618904114 2.7305002213 0.1984000206
N  3.5441403389 3.4911303520 1.1766500473
H  1.4069901705 -1.3870700598 -1.1007900238
H  2.9492101669 -1.3779301643 -0.2151900083
H  2.8463301659 -0.6688600779 -1.8591401577
H  3.9397501945 0.8575400710 0.4326900244
H  4.4287304878 2.6196203232 -1.2812401056
H  1.5334000587 2.2924304008 -2.2243402004
H  2.9728903770 1.7818101645 -3.1253001690
H  2.7024703026 3.4985101223 -2.7817602158
H  1.7053902149 2.9923503399 0.1839100122
H  4.5148401260 3.1839203835 1.2020601034
H  3.1754901409 3.3364803791 2.1151702404
