17

C  -0.3555200100 -1.1277601719 0.5447800159
N  0.8887500763 -1.3787901402 1.2463600636
C  2.1340100765 -1.3922500610 0.4804400504
C  2.3841302395 -2.7193100452 -0.2592300177
N  2.4812903404 -3.8635802269 0.6493300796
C  0.8716700673 -1.7896600962 2.5647301674
O  -0.1291900128 -1.9471200705 3.2523300648
H  -1.2027401924 -1.0823200941 1.2349901199
H  -0.5291100144 -1.9318801165 -0.1755800098
H  -0.2781300247 -0.1724600047 0.0171600021
H  2.9677503109 -1.2000601292 1.1664700508
H  2.1042702198 -0.5636300445 -0.2357900143
H  3.3188803196 -2.6398701668 -0.8240001202
H  1.5801000595 -2.9066803455 -0.9790900946
H  1.5815501213 -3.9915802479 1.1165001392
H  2.6320800781 -4.7140102386 0.1068700105
H  1.8815802336 -1.9707901478 2.9699301720
