11

C  0.9612401128 -0.0048300005 -0.0269800015
C  2.4501004219 0.0532200038 -0.1522100121
C  3.1751503944 1.1284000874 0.1820500046
C  4.6452903748 1.1212201118 0.0340400040
O  5.3198604584 2.0977602005 0.3360500336
H  0.6758700013 -0.8187301159 0.6463600397
H  0.5125000477 -0.1946400106 -1.0067000389
H  0.5424600244 0.9267801046 0.3661300242
H  2.9303700924 -0.8433600664 -0.5381700397
H  2.7396101952 2.0419402122 0.5699900389
H  5.0933804512 0.1946000159 -0.3600800335
