17

C  0.8112500310 0.2409300208 -0.0802100077
C  2.2750599384 0.0611300059 0.2333800048
O  2.6825599670 -1.0450700521 0.6115500927
C  3.2067604065 1.2874100208 0.0870700106
C  2.6220901012 2.7219402790 0.2132500261
C  3.9392702579 3.1288003922 0.8997200727
C  4.0954403877 1.6527000666 1.3089401722
H  0.7010900378 0.7499800920 -1.0410100222
H  0.3330400288 0.8182300925 0.7141300440
H  0.3265500069 -0.7370500565 -0.1520800143
H  3.8116803169 1.1857500076 -0.8269100189
H  1.7478200197 2.8074002266 0.8684300780
H  2.4090402126 3.2304201126 -0.7307800651
H  4.7105107307 3.4778304100 0.2041100115
H  3.8475203514 3.8437001705 1.7207400799
H  5.1172204018 1.2641401291 1.2852500677
H  3.6460602283 1.4126100540 2.2801201344
