16

O  1.0490101576 0.1428000182 0.2083400190
C  2.4536201954 -0.0168700013 0.0505000055
C  2.7675101757 -1.4282901287 -0.4190400243
C  2.7544901371 -1.3272000551 -1.9436001778
N  3.2405600548 0.0279100034 -2.2776501179
C  2.1846201420 1.0335301161 -2.3418500423
C  2.9610702991 0.8416500688 -1.0682301521
H  0.8942300677 1.0782301426 0.4280800223
H  2.9404101372 0.2037100196 1.0053501129
H  2.0556602478 -2.1747300625 -0.0543600060
H  3.7754204273 -1.7090600729 -0.0904600099
H  3.4179804325 -2.0805101395 -2.3818402290
H  1.7491801977 -1.5078700781 -2.3438103199
H  2.4066500664 1.9065302610 -2.9444901943
H  1.1550800800 0.7000200152 -2.3991401196
H  3.7341504097 1.5433400869 -0.7895300388
