14

O  1.3425900936 0.1295600086 0.8378000855
C  2.3992402554 0.0667800009 0.2145700157
C  3.1201102734 -1.2541800737 -0.0977300107
O  4.0236101151 -1.2446601391 -1.2010400295
C  4.8968501091 -0.1132700071 -1.1286801100
C  4.0733504295 1.1707501411 -1.1943501234
N  3.0587301254 1.2132600546 -0.1612800062
H  2.3607401848 -2.0134000778 -0.3053800166
H  3.6676104069 -1.5568300486 0.8020600677
H  5.4869403839 -0.1687900126 -0.2067600191
H  5.5859403610 -0.1626700163 -1.9776700735
H  4.7092504501 2.0545001030 -1.0842601061
H  3.5444202423 1.2299301624 -2.1518101692
H  2.5351800919 2.0660502911 -0.0053600003
