12

O  1.1989001036 -0.2157200128 0.4368600547
C  2.3714501858 -0.0437600054 0.2182800174
C  3.3267302513 1.1374499798 -0.0079500005
C  4.2600102425 0.0706600100 -0.6190600395
N  3.3628101349 -0.9400100708 -0.0415200032
C  4.2849602699 -0.0267000031 -2.0612602234
C  4.2950401306 -0.1031800136 -3.2597801685
H  3.6799304485 1.5972300768 0.9196100831
H  2.9455802441 1.9032201767 -0.6877500415
H  5.2521605492 0.0375800021 -0.1557000130
H  3.0866301060 -1.8289902210 -0.4353200495
H  4.2967305183 -0.1687300205 -4.3238701820
