17

C  2.8749301434 -1.1085000038 -0.4710400403
N  2.3609902859 0.1094300076 0.1406100094
C  3.3573603630 1.1835100651 0.1608800143
C  3.4647903442 2.1091701984 -1.0210900307
C  2.8716301918 2.6051001549 0.2685300112
C  3.6113302708 3.5913703442 1.1050801277
H  2.0913102627 -1.8723101616 -0.4825900197
H  3.7285101414 -1.5053800344 0.0882200077
H  3.1807901859 -0.9313300848 -1.5072901249
H  2.0455501080 -0.0984900072 1.0878300667
H  4.2839102745 0.9430200458 0.6796500683
H  2.7928102016 1.9535801411 -1.8575001955
H  4.4531903267 2.4487001896 -1.3070000410
H  1.8021701574 2.7814803123 0.2919700146
H  4.6939301491 3.4272701740 1.0777001381
H  3.2831501961 3.5220601559 2.1472501755
H  3.4127702713 4.6085801125 0.7523400784
