14

C  1.9352301359 -0.9135701060 -0.4782400429
N  3.1976802349 -0.2572400272 -0.2537600100
C  3.3329603672 1.1026101112 -0.4567600489
O  2.4409003258 1.7997001410 -0.9346401095
C  4.7045302391 1.6620302200 -0.1175000072
C  5.0838103294 1.4334801435 1.2866201401
C  5.4043903351 1.2565600872 2.4311401844
H  2.0964400768 -1.9938602448 -0.4669100344
H  1.5201700926 -0.6079000235 -1.4425401688
H  1.2440900803 -0.6318000555 0.3205700219
H  3.8886101246 -0.7252100110 0.3199800253
H  4.6961102486 2.7374002934 -0.3281800151
H  5.4352002144 1.2032300234 -0.7930200696
H  5.6902403831 1.1118400097 3.4477403164
