16

C  0.9545900822 0.0041600000 -0.0346400030
C  2.4738600254 0.0037300002 0.1290400028
C  3.0803802013 1.3275201321 -0.3283000290
C  3.7023103237 1.1761699915 -1.6997601986
O  4.6402206421 0.1058000103 -1.6253000498
N  4.0197901726 -1.1506100893 -1.4772400856
C  3.0357601643 -1.1760500669 -0.6314100623
H  0.5000300407 0.8129100800 0.5473400354
H  0.5238000154 -0.9408000708 0.3151900172
H  0.6652500629 0.1296000183 -1.0836900473
H  2.6938302517 -0.1573000103 1.1910800934
H  2.3498601913 2.1437001228 -0.3201100230
H  3.8700301647 1.6009501219 0.3832900226
H  4.2472205162 2.0849101543 -1.9737501144
H  2.9601602554 0.9759000540 -2.4810802937
H  2.5644202232 -2.1552801132 -0.4393400252
