20

C  3.2808601856 -0.5163400769 0.9436400533
C  2.3806302547 0.6629600525 0.6029199958
C  3.1099402905 1.7805200815 -0.1311200112
C  3.1188101768 1.7203801870 -1.6437901258
C  2.2610101700 2.7328002453 -0.9456601143
N  4.3279700279 2.3332202435 0.5006300807
C  4.0639200211 3.1468601227 1.6767101288
H  2.6868302822 -1.3390001059 1.3521200418
H  4.0258002281 -0.2410100251 1.6955701113
H  3.8101203442 -0.8796000481 0.0581100024
H  1.9318501949 1.0591100454 1.5223101377
H  1.5479902029 0.2934400439 -0.0093500009
H  2.6247801781 0.8930400610 -2.1387701035
H  3.9953103065 2.0823802948 -2.1680302620
H  2.5620801449 3.7723803520 -1.0037600994
H  1.1872200966 2.5886700153 -0.9598000646
H  4.9866299629 1.5928801298 0.7320600748
H  3.4530801773 4.0203304291 1.4252501726
H  5.0109105110 3.5159602165 2.0833201408
H  3.5624201298 2.5757503510 2.4640100002
