20

C  0.7160800695 0.5252900720 0.4562900364
C  2.1939401627 0.6345200539 0.6448900700
C  3.0128502846 1.2822301388 -0.1987900138
C  4.5017304420 1.3955900669 -0.0019500001
C  4.9904203415 2.8547601700 0.1168100014
C  4.3956103325 3.5751802921 1.3284300566
N  6.4562301636 2.8770003319 0.2098100185
H  0.4289700389 -0.5260200500 0.3592600226
H  0.3715600371 1.0590900183 -0.4348600507
H  0.1994200051 0.9445900917 1.3252100945
H  2.6010003090 0.1521400213 1.5308800936
H  2.6069600582 1.7569301128 -1.0899801254
H  4.9870800972 0.9199500680 -0.8643500805
H  4.8145804405 0.8255300522 0.8828500509
H  4.7057700157 3.4021801949 -0.7899200916
H  4.6236100197 3.0472502708 2.2611100674
H  3.3071501255 3.6588602066 1.2440301180
H  4.7905402184 4.5941200256 1.4115501642
H  6.7516002655 2.3995900154 1.0612701178
H  6.7756905556 3.8405301571 0.3053100109
