15

N  0.9897100925 -0.3174500167 -0.2155300081
C  2.3122200966 0.1327900141 0.2434900105
C  3.5010702610 -0.7092100978 -0.3991800249
N  4.3056502342 0.5950500369 -0.1695200205
C  2.9912002087 1.1612000465 -0.7650500536
C  3.0259501934 0.5687600374 -2.1282300949
C  3.3715903759 -0.6999000311 -1.8800101280
H  0.2292300165 0.3083300292 0.0439200029
H  0.7318900824 -1.2450900078 0.1162800044
H  2.3765201569 0.3508100212 1.3153800964
H  3.8731002808 -1.6071500778 0.0929800048
H  4.4551501274 0.8280700445 0.8100200295
H  2.8283402920 2.2333700657 -0.6586500406
H  2.8186402321 1.0469601154 -3.0686202049
H  3.5167200565 -1.5136201382 -2.5680103302
