12

C  1.0000001192 0.0000000000 0.0000000000
C  2.1901600361 0.0000000000 0.0000000000
C  3.6341602802 0.0000000000 0.0000000000
C  4.1964302063 1.4216101170 -0.0063300007
C  5.6682004929 1.4152001143 -0.0068800007
C  6.8689904213 1.4140501022 -0.0074100005
H  -0.0659100041 -0.0022000002 0.0000100000
H  4.0058703423 -0.5479000211 -0.8750100732
H  4.0059103966 -0.5400400758 0.8798601031
H  3.8348002434 1.9724601507 0.8710500598
H  3.8342001438 1.9648401737 -0.8882800341
H  7.9359307289 1.4153300524 -0.0079200007
