10

C  0.9734600782 -0.0054500005 -0.0000000000
C  2.3140401840 0.0000000000 0.0000000000
C  3.0170402527 -1.2176301479 0.0000000000
C  3.6121203899 -2.2483401299 0.0000000000
C  3.0071504116 1.2457901239 0.0000000000
C  3.5976402760 2.2916500568 0.0000000000
H  0.4032800496 0.9181700945 -0.0000000000
H  0.4101900458 -0.9333701134 -0.0000000000
H  4.1475300789 -3.1689400673 -0.0000000000
H  4.1263904572 3.2156701088 0.0000000000
