17

C  1.0352101326 0.0708200037 0.0332300030
C  2.5583901405 -0.0174200013 0.0625100061
C  3.0416102409 -0.8723200560 1.2295001745
O  3.0103602409 -0.6390500069 -1.1421101093
C  3.1611001492 1.3816901445 0.1409000158
N  3.0602302551 2.1089901924 1.2103101015
N  3.6405401230 3.3251402378 1.0833700895
H  0.6957800388 0.6935700774 -0.8033300638
H  0.6345000267 0.5041500330 0.9561000466
H  0.5886300802 -0.9197400212 -0.1108500063
H  2.6983900070 -0.4822300375 2.1935601234
H  4.1371002197 -0.9137400389 1.2536001205
H  2.6906499863 -1.9058802128 1.1289000511
H  2.5391101837 -0.2307800204 -1.8889101744
H  3.6580002308 1.7575501204 -0.7748300433
H  3.4431602955 3.8815803528 1.9193601608
H  4.6608905792 3.2445402145 1.0566600561
