12

C  0.8638600707 0.1140700132 -0.0085200006
C  2.3482601643 0.0381800048 -0.0007400001
C  3.2157001495 1.0583600998 0.0055800001
N  4.5269007683 0.6661100388 0.0123000015
C  4.7588405609 -0.6879600286 0.0118100010
O  5.8410606384 -1.2484600544 0.0172400009
S  3.1872203350 -1.4975801706 0.0017700001
H  0.5179500580 1.1529901028 -0.0052600005
H  0.4462100267 -0.3788800538 0.8752800822
H  0.4561100304 -0.3702100217 -0.9016700983
H  2.9698503017 2.1122300625 0.0057400004
H  5.3079104424 1.3061701059 0.0176000018
