13

C  1.8912901878 -0.6755600572 -0.7758500576
O  2.4066801071 0.0016200001 0.3708600402
C  3.0615003109 1.1682699919 0.0000000000
C  2.3814401627 2.3056399822 -0.2341200262
N  1.0173300505 2.5011401176 -0.1889400035
C  4.4675002098 1.1682699919 0.0000000000
N  5.6185102463 1.1682699919 0.0000000000
H  1.5404601097 -1.6598501205 -0.4528900385
H  2.6641802788 -0.8209300637 -1.5377300978
H  1.0381900072 -0.1358500123 -1.1982899904
H  2.9155502319 3.2212603092 -0.4893300235
H  0.5336400270 1.7768601179 0.3426400125
H  0.7485300303 3.4376602173 0.1095200107
