15

C  0.9780400991 -0.0746600032 0.0210100021
C  2.4987702370 -0.0569800027 0.0283300020
C  3.0407803059 1.3712800741 -0.0308000017
C  4.5428004265 1.3858500719 -0.0140700014
C  5.2994208336 1.8810300827 -1.0007001162
H  0.6107100844 -1.1047301292 0.0652200058
H  0.5848800540 0.3872800171 -0.8902700543
H  0.5752100348 0.4670500457 0.8827800751
H  2.8681001663 -0.6351600289 -0.8271200657
H  2.8578200340 -0.5593800545 0.9351800680
H  2.6790201664 1.9423700571 0.8326100707
H  2.6590101719 1.8742500544 -0.9276900291
H  5.0296907425 0.9731600285 0.8675200343
H  4.8616604805 2.3081502914 -1.8979201317
H  6.3832607269 1.8684401512 -0.9295600653
