12

C  0.8990000486 0.0213200022 -0.1848200262
N  2.3288800716 0.0287300032 0.0426900014
C  3.1096301079 1.1585900784 0.0341500044
C  4.4467902184 1.2094000578 0.0000000000
C  5.1497902870 2.4270403385 0.0000000000
N  5.7252902985 3.4238402843 0.0000000000
H  0.4904600382 -0.9649600983 0.0544300042
H  0.6779300570 0.2420800179 -1.2336901426
H  0.3974400163 0.7608000636 0.4478600323
H  2.8073000908 -0.8471800685 -0.1577800214
H  2.5269601345 2.0805201530 0.0686300024
H  5.0316805840 0.2985100448 -0.0247900020
