17

C  0.8345900774 0.4536400139 -0.8478700519
N  2.2545201778 0.2901500165 -1.0612601042
C  3.1927103996 1.1420800686 -0.5276600718
N  3.0195200443 2.4133503437 -0.3876400292
C  4.5358004570 0.5295300484 -0.0832600072
C  4.3827004433 -0.1319100112 1.2754900455
O  4.9293699265 -0.4626400173 -1.0285000801
H  0.2964300513 -0.4049500227 -1.2609400749
H  0.4628500342 1.3537901640 -1.3458901644
H  0.6091901064 0.5164400339 0.2213700116
H  2.5575101376 -0.6842900515 -1.0387901068
H  2.1063802242 2.6688301563 -0.7682700753
H  5.3041400909 1.3090600967 -0.0440300032
H  3.7018203735 -0.9890500307 1.2226600647
H  3.9946203232 0.5681100488 2.0213201046
H  5.3468003273 -0.5185100436 1.6219801903
H  5.0603504181 0.0165800005 -1.8671401739
