16

C  1.3356701136 -0.6980000734 0.6508800983
C  2.4980401993 -0.0300700031 -0.0576400049
O  3.6572701931 -0.1599500030 0.7645200491
C  4.8215003014 0.4662400186 0.1982000172
C  5.8511500359 0.5826200247 1.3167101145
C  5.3848404884 -0.3128500283 -0.9245401025
N  5.8236508369 -0.9041300416 -1.8230901957
H  0.4203400314 -0.6202300191 0.0575700030
H  1.1636201143 -0.2366000116 1.6287900209
H  1.5513701439 -1.7562100887 0.8311400414
H  2.2745301723 1.0305701494 -0.2167400122
H  2.6634802818 -0.5124400258 -1.0266400576
H  4.5594401360 1.4769800901 -0.1368900090
H  6.1114602089 -0.4037700295 1.7192401886
H  5.4451303482 1.1654601097 2.1506302357
H  6.7709107399 1.0651700497 0.9689800739
