13

N  2.8194801807 -0.6995300651 -1.3348000050
C  2.3829402924 -0.0406600051 -0.1004900113
C  2.8870501518 1.3731300831 -0.0483200029
N  2.0045800209 2.3627502918 0.1189400032
S  2.8063602448 3.8117203712 0.1498100013
C  4.3728504181 3.1516802311 -0.0237100031
C  4.2626805305 1.7816401720 -0.1163600087
H  2.4183602333 -1.6345800161 -1.3639100790
H  3.8289003372 -0.8184500337 -1.3169500828
H  2.7566001415 -0.5969900489 0.7661100626
H  1.2876901627 -0.0600300059 -0.0588000044
H  5.2564101219 3.7730402946 -0.0500400029
H  5.1038603783 1.1135101318 -0.2345400155
