18

C  1.4674102068 -0.2276000082 -0.4252000451
C  2.8404903412 0.0714700073 0.0996900052
C  3.6407701969 -1.0525801182 0.7017000318
C  4.0528001785 -0.4602200389 -0.6183300018
C  5.0621199608 0.6434900761 -0.6714500785
C  4.2616004944 1.9065901041 -0.3306100368
N  3.1129300594 1.4775301218 0.4923800528
H  1.1107801199 0.5820100307 -1.0695800781
H  0.7639101148 -0.3386000395 0.4060300291
H  1.4486202002 -1.1521800756 -1.0111200809
H  3.2146303654 -2.0496902466 0.6944800615
H  4.2460603714 -0.8511500359 1.5774301291
H  3.9308502674 -1.0188500881 -1.5335299969
H  5.8516402245 0.4711600244 0.0687600076
H  5.5231504440 0.7235700488 -1.6607301235
H  4.8723306656 2.6577403545 0.1790700257
H  3.8748803139 2.3568701744 -1.2523701191
H  3.3837401867 1.5054001808 1.4753601551
