16

C  0.9335400462 -0.3983900249 0.0959700048
C  2.4217102528 -0.0914800018 -0.0123600010
O  2.9983503819 -0.9663700461 -0.9838401079
C  2.6660101414 1.3570901155 -0.4209000170
C  4.1310701370 1.6718400717 -0.2999500334
N  4.5449404716 2.6066701412 0.4939000309
O  5.9384403229 2.6911902428 0.3955100477
H  0.4513700604 0.2264000177 0.8534300923
H  0.7795200348 -1.4503000975 0.3597900271
H  0.4282700121 -0.2382900119 -0.8630800247
H  2.9077003002 -0.3062700033 0.9459900856
H  2.4621002674 -0.9214900732 -1.7945500612
H  2.0970301628 2.0450601578 0.2136800140
H  2.3845303059 1.5201201439 -1.4668101072
H  4.8283805847 1.0840801001 -0.9235600829
H  6.1509704590 3.4058804512 1.0243500471
