17

N  2.2456500530 -0.4062200189 -1.4774800539
C  2.4022803307 0.1357700080 -0.1195100024
C  3.4267704487 1.2952901125 -0.0367200039
N  3.6412904263 1.7085500956 1.3753001690
C  3.1427001953 3.0917603970 1.5029401779
C  2.8170001507 3.5362801552 0.1266600192
C  2.9716601372 2.5317502022 -0.7365900278
H  1.5720701218 -1.1703901291 -1.4468201399
H  3.1285202503 -0.8170300722 -1.7770601511
H  2.7218301296 -0.6813001037 0.5387400389
H  1.4200000763 0.4708500206 0.2356900126
H  4.3859605789 0.9668500423 -0.4565900266
H  4.6474003792 1.7329201698 1.5342501402
H  3.9069504738 3.7331302166 1.9529100657
H  2.2509901524 3.1103203297 2.1368103027
H  2.4749801159 4.5284299850 -0.1255800128
H  2.7748503685 2.5782203674 -1.7973601818
