17

C  1.2090301514 -0.1872300059 0.8404300809
N  2.6362102032 -0.0398300029 0.6017000675
C  2.9740900993 1.3467900753 0.2527000010
C  4.4526700974 1.4575400352 -0.1454000026
O  4.6731705666 0.7260400653 -1.3568800688
C  6.0353407860 0.7871100903 -1.7571700811
H  0.9867500663 -1.2274401188 1.0991001129
H  0.6213200092 0.0713100061 -0.0468400046
H  0.8826900125 0.4370700121 1.6794801950
H  2.9183101654 -0.6308600307 -0.1840200275
H  2.7821402550 2.0020301342 1.1093900204
H  2.3564403057 1.6775901318 -0.5909799933
H  5.0948505402 1.0622700453 0.6511800289
H  4.7042503357 2.5113303661 -0.3123400211
H  6.1512207985 0.2079900205 -2.6775202751
H  6.6821103096 0.3534300327 -0.9879300594
H  6.3292403221 1.8223800659 -1.9567800760
