16

C  1.1435700655 0.1363600194 0.2081900239
C  2.4437601566 -0.0859800056 -0.0279200021
C  3.0526301861 -1.4583400488 -0.2280100286
N  4.3311305046 -1.2522901297 -0.9483401179
C  4.6636004448 0.1815800071 -0.8184900284
C  3.9522204399 1.2168101072 -1.6388801336
C  3.4767704010 0.9302600622 -0.2436600178
H  0.7594800591 1.1476601362 0.2906199992
H  0.4392200410 -0.6819600463 0.3072200119
H  2.4021503925 -2.1239802837 -0.8021200895
H  3.2581303120 -1.9073700905 0.7502700686
H  5.0448102951 -1.8382101059 -0.5198800564
H  5.6564707756 0.4228600562 -0.4516700506
H  4.4595298767 2.1581902504 -1.8143101931
H  3.3476102352 0.8851900697 -2.4758002758
H  3.6650102139 1.6425400972 0.5491800904
