14

O  0.9055401087 -0.0031900003 0.1135200039
C  2.3386402130 0.0055000004 0.0136000011
C  3.0673203468 1.0546200275 0.8786100745
C  4.1166505814 -0.0199100021 1.2247101068
O  5.3465504646 0.0105800014 0.4740000367
C  3.0843501091 -1.0858000517 0.8090900779
H  0.6192899942 -0.7859600782 -0.3879000247
H  2.6489601135 0.0452500023 -1.0377401114
H  2.4926700592 1.4068500996 1.7435801029
H  3.4447503090 1.9236701727 0.3309000134
H  4.3556203842 -0.0542000011 2.2933602333
H  5.0960302353 0.1193600073 -0.4585600495
H  3.4749400616 -1.9111402035 0.2059600055
H  2.5150702000 -1.5026001930 1.6486401558
