20

C  1.2477000952 -0.7764600515 0.1569500118
C  2.7192800045 -0.7433500886 -0.2265600115
O  2.8175301552 -0.6425300241 -1.6495801210
C  3.4490301609 0.4549000263 0.4185000360
N  4.8431701660 0.5893200636 -0.0684300065
C  5.3854007721 1.8880101442 0.3456000090
C  5.7002801895 -0.4820600450 0.4487700164
H  1.1234600544 -0.8701601028 1.2395601273
H  0.7466500401 -1.6212102175 -0.3271900117
H  0.7326900959 0.1293400079 -0.1800600141
H  3.1818103790 -1.6896001101 0.0724299997
H  3.7109603882 -0.2747900486 -1.8098201752
H  3.4119703770 0.3838500082 1.5127800703
H  2.9020900726 1.3622901440 0.1292000115
H  4.7953801155 2.7066001892 -0.0827400088
H  6.4086804390 2.0160501003 -0.0257700030
H  5.3964304924 2.0028500557 1.4360501766
H  5.3934707642 -1.4578100443 0.0605400056
H  5.6941804886 -0.5244900584 1.5442701578
H  6.7364606857 -0.3391900063 0.1182200089
