18

C  1.7621201277 1.9058902264 1.3360201120
O  3.1781401634 1.9476401806 1.2259801626
C  3.6372902393 1.2110401392 0.0944300070
C  5.1455607414 1.2552701235 0.0669100061
C  5.8671903610 0.1197600141 0.1243200079
C  5.7271504402 2.6436500549 -0.0585300066
N  7.1871004105 2.6872601509 -0.0901800096
H  1.4667401314 2.5008201599 2.2043900490
H  1.4198801517 0.8773700595 1.4852001667
H  1.2946101427 2.3335802555 0.4439500272
H  3.2391102314 1.6585601568 -0.8241900206
H  3.2712903023 0.1792400181 0.1599200070
H  5.3948807716 -0.8533501029 0.2084100097
H  6.9522604942 0.1295300126 0.0793600082
H  5.3855800629 3.2645902634 0.7771000862
H  5.3533105850 3.0999400616 -0.9820401073
H  7.5278306007 2.3839602470 0.8215200305
H  7.4793505669 3.6583702564 -0.1826500148
