15

O  0.9996200800 -0.0050900006 -0.0058200005
C  2.4200003147 0.0000000000 0.0000000000
C  2.9020202160 1.3611700535 0.0000000000
C  3.2993004322 2.4830701351 0.0000000000
C  3.9388203621 3.7651803493 0.0355400033
C  3.7688403130 4.6966505051 -1.1338400841
C  3.1132702827 5.0125102997 0.1794700176
H  0.7252000570 -0.9361900687 -0.0067700003
H  2.7697303295 -0.5398100615 -0.8853400946
H  2.7624201775 -0.5373100042 0.8897000551
H  4.9118103981 3.7741901875 0.5200500488
H  3.1339402199 4.3905301094 -1.9567701817
H  4.6282505989 5.2846102715 -1.4332300425
H  3.5268402100 5.8204507828 0.7728700638
H  2.0356101990 4.9186601639 0.2465300262
