17

C  1.0056800842 0.0303600021 -0.0977000073
C  2.5116803646 -0.0437600054 0.0786200091
C  3.0707802773 1.0560400486 0.9649300575
O  4.3432207108 0.5840000510 1.4320900440
C  4.2366299629 -0.7983600497 1.4313900471
C  5.1992506981 -1.5618101358 1.9537302256
C  2.9818301201 -1.2960101366 0.7904900312
H  0.6482300162 -0.7948800325 -0.7219800353
H  0.7180600166 0.9712200761 -0.5776700377
H  0.4869300425 -0.0275600012 0.8655100465
H  2.9944400787 0.0093400003 -0.9068000317
H  2.4352903366 1.2581501007 1.8358901739
H  3.2129101753 1.9912701845 0.4141200483
H  5.1255702972 -2.6433701515 1.9568802118
H  6.0800008774 -1.1095399857 2.3982002735
H  3.1626203060 -2.1149201393 0.0874300078
H  2.2715802193 -1.6259400845 1.5561501980
