17

C  1.5600701571 -0.5014900565 0.8762200475
C  3.0275702477 -0.0888200030 0.8672700524
C  3.2861101627 1.2634500265 0.1739600152
N  2.5858302116 2.3592302799 0.8450000286
C  4.7332305908 1.6705501080 0.0707500055
C  5.8118505478 1.0237400532 0.5351300836
H  1.4593000412 -1.5174401999 1.2725601196
H  1.1407901049 -0.4895200431 -0.1349500120
H  0.9602300525 0.1591600180 1.5098301172
H  3.5915002823 -0.8734200597 0.3470200300
H  3.3920600414 -0.0685800090 1.9021701813
H  2.9015800953 1.2000800371 -0.8518300056
H  2.8353202343 2.3517801762 1.8330901861
H  1.5819602013 2.1973500252 0.8057500124
H  4.9016304016 2.6104702950 -0.4557400644
H  5.7464904785 0.0832900032 1.0707300901
H  6.8044505119 1.4389700890 0.3867500424
