10

N  -1.1325501204 -0.0001100000 0.0005400000
C  -0.3398500085 1.1181700230 0.0002200000
C  0.9743600488 0.7078500390 -0.0001400000
C  0.9743900895 -0.7080200911 -0.0000400000
C  -0.3399700224 -1.1184600592 0.0003800000
H  -2.1446101665 -0.0001400000 0.0008400001
H  -0.7781800628 2.1067302227 0.0002800000
H  1.8400602341 1.3572101593 -0.0004400000
H  1.8401501179 -1.3576099873 -0.0002400000
H  -0.7782101035 -2.1071403027 0.0005900000
