15

O  0.8266800642 -0.1969200224 -0.1156500056
C  2.2503402233 0.0423500054 -0.1053400040
C  2.7706501484 1.1301400661 0.8594800830
N  3.9745001793 0.2755400240 1.0916200876
C  3.1233901978 -0.9013000131 0.7511500716
N  4.4663205147 0.2849000096 2.3516201973
C  5.6245803833 0.8531500697 2.4134700298
H  0.7173200846 -1.0242700577 -0.6146300435
H  2.6252300739 0.1646600068 -1.1302400827
H  2.1397302151 1.2910200357 1.7430801392
H  2.9887101650 2.0976600647 0.3979200125
H  3.6433300972 -1.6870501041 0.1952800155
H  2.5975403786 -1.3554800749 1.6007401943
H  6.1402807236 0.9294101000 3.3839702606
H  6.1466803551 1.2787201405 1.5390201807
