16

C  1.0479700565 -0.2641100287 0.0124700004
O  2.4470801353 -0.0308600031 0.0158000011
C  2.8940103054 1.3385500908 0.0000000000
C  2.4070901871 2.0590100288 -1.2675900459
C  2.4071002007 2.0864601135 1.2510700226
C  4.3380103111 1.3385500908 0.0000000000
N  5.4890203476 1.3385500908 0.0000000000
H  0.8900400996 -1.3465400934 0.0296100024
H  0.5799300671 0.1241600066 -0.8951501250
H  0.5700500607 0.1542500108 0.9013300538
H  2.6559700966 1.4810901880 -2.1654901505
H  2.8576300144 3.0534901619 -1.3667501211
H  1.3201301098 2.1915001869 -1.2662601471
H  2.6559503078 1.5285601616 2.1619601250
H  1.3198801279 2.2189402580 1.2473301888
H  2.8574399948 3.0832700729 1.3287400007
