19

C  2.0964102745 -0.2914200425 -1.5173201561
C  2.4817502499 0.1472600102 -0.1146200076
C  3.2326004505 1.4749001265 -0.0891600028
C  2.4345800877 2.6655902863 -0.5964100361
C  3.1006803513 3.8076500893 0.1289900094
C  3.3885903358 3.1946501732 1.4814500809
O  3.5949301720 1.7909801006 1.2685500383
H  1.6101001501 -1.2715700865 -1.4853700399
H  2.9794402122 -0.3720700145 -2.1590600014
H  1.3978401423 0.4134700298 -1.9782202244
H  3.1070203781 -0.6258200407 0.3491800427
H  1.5841001272 0.2133900225 0.5126500726
H  4.1693902016 1.3834000826 -0.6533600688
H  1.3848100901 2.5953900814 -0.2868300378
H  2.4666202068 2.7691102028 -1.6845002174
H  4.0403800011 4.0687704086 -0.3726400435
H  2.4845101833 4.7092800140 0.1903900206
H  4.2707901001 3.6288602352 1.9599301815
H  2.5340602398 3.3064200878 2.1570801735
