15

C  1.8168201447 -0.6322400570 -0.9948800802
C  2.9052503109 -0.2772100270 0.0059800004
C  3.0532400608 1.2118800879 0.1470700204
C  4.1762104034 1.8719100952 -0.1814900190
C  4.3878207207 3.3230202198 -0.0199900009
O  3.2727503777 4.0643401146 -0.1478300095
O  5.4960503578 3.7991702557 0.1647000164
H  1.7085601091 -1.7192702293 -1.0659700632
H  2.0584001541 -0.2503800094 -1.9926801920
H  0.8494001031 -0.2151900083 -0.6952300072
H  3.8485202789 -0.7396200299 -0.3074700534
H  2.6530702114 -0.6997500658 0.9853200912
H  2.2038402557 1.7295402288 0.5864400864
H  5.0546903610 1.3432002068 -0.5400200486
H  2.4996402264 3.5602602959 -0.4575600326
