13

C  2.0218102932 -0.1289000064 -0.0472200029
C  0.7189800143 -0.8091900945 0.0755200014
N  -0.4187100530 -1.2257699966 -0.7438100576
N  -1.5372601748 -0.5294600725 -0.2882700264
C  -1.3712301254 0.6597600579 0.2310700119
O  -0.1713800132 1.3183100224 0.3792500198
C  0.8581001163 0.6889800429 -0.3948400319
H  2.6792302132 -0.4505300522 -0.8474300504
H  2.5581800938 0.1246800050 0.8606900573
H  0.5469800234 -1.0570501089 1.1265901327
H  -0.5955300331 -2.2316601276 -0.6979700327
H  -2.1973302364 1.2563401461 0.6414500475
H  0.8165200353 0.9157400727 -1.4615402222
