18

C  0.7843800187 -0.5572800040 -0.3748100400
C  2.2380602360 -0.6008600593 -0.6984900236
N  2.7408201694 0.0500100031 -1.9091601372
C  3.0759003162 0.6541900635 -0.6181500554
C  4.4808406830 0.6207900643 -0.0800900012
C  5.4404001236 -0.3382800221 -0.7801200151
O  5.6447906494 0.0604600050 -2.1310601234
H  0.6415600181 -0.5942800641 0.7101000547
H  0.2732100189 -1.4199200869 -0.8141500950
H  0.2998500168 0.3516600132 -0.7488300800
H  2.6884701252 -1.5517101288 -0.4420100451
H  1.9995601177 0.5788600445 -2.3752202988
H  2.5766503811 1.5854300261 -0.3732500076
H  4.4367103577 0.3718100190 0.9866900444
H  4.8865003586 1.6368901730 -0.1585800201
H  5.0758905411 -1.3693600893 -0.7718300819
H  6.4132905006 -0.3214600086 -0.2803700268
H  4.7481403351 0.0609500036 -2.5288500786
