18

C  1.1261000633 -0.2683400214 0.2338400185
C  2.6252703667 -0.1843800247 -0.0095100012
C  3.1576602459 1.2264101505 0.2655400038
C  4.6640305519 1.3639801741 -0.0169800017
C  5.0859904289 2.8312702179 0.0646100044
C  5.4624900818 0.5671700239 0.9357400537
N  6.0907607079 -0.0591000058 1.6823800802
H  0.7655600905 -1.2816801071 0.0311500020
H  0.5828300118 0.4222900271 -0.4189500511
H  0.8834500313 -0.0228400007 1.2726900578
H  2.8363003731 -0.4647600353 -1.0480201244
H  3.1277601719 -0.9153300524 0.6335300207
H  2.9423103333 1.4999800920 1.3069601059
H  2.6086301804 1.9351900816 -0.3679300249
H  4.8690805435 1.0081200600 -1.0344101191
H  4.9023108482 3.2467601299 1.0622400045
H  4.5336804390 3.4367802143 -0.6618000269
H  6.1549406052 2.9444203377 -0.1492300034
