15

C  1.0009500980 -0.0536500029 0.0030400001
C  2.5200002193 0.0000000000 0.0000000000
C  3.0020201206 1.3611700535 0.0000000000
C  3.3993003368 2.4830701351 0.0000000000
C  4.0346002579 3.7706401348 0.0476000048
N  5.3770503998 3.8269302845 0.1748100221
N  3.2498502731 4.7765703201 -0.0518200062
H  0.6571400166 -1.0929101706 0.0018000001
H  0.5851300359 0.4431300461 -0.8804800510
H  0.5888800621 0.4397500455 0.8902100921
H  2.8955202103 -0.5327299833 -0.8808800578
H  2.8991603851 -0.5341600180 0.8784400821
H  5.8987202644 3.0326302052 -0.1724500060
H  5.7626304626 4.7279305458 -0.0792700052
H  2.2754101753 4.4680604935 -0.1317100078
