19

C  2.1417500973 -0.7429000139 -1.2943000793
N  1.8135801554 0.3606000245 -0.3993400335
C  3.0031101704 1.1211199760 0.0658400059
C  3.7992804050 0.4398000240 1.1568499804
C  3.7517704964 1.9880702496 -0.9211500883
C  2.8687000275 2.6435801983 0.0957100093
N  3.4589602947 3.4676504135 1.1509799957
H  2.6418802738 -0.3912700117 -2.2018601894
H  1.2203001976 -1.2513700724 -1.5946301222
H  2.7769200802 -1.4853301048 -0.8027600646
H  1.1513600349 0.9767000675 -0.8703500628
H  4.7122406960 0.9864100814 1.4140200615
H  4.1093401909 -0.5634600520 0.8473700881
H  3.1931703091 0.3459200561 2.0642802715
H  3.4234302044 2.0129601955 -1.9538700581
H  4.8261504173 2.0840201378 -0.8163700104
H  1.9352102280 3.0574300289 -0.2820100188
H  4.4042501450 3.1692600250 1.3831800222
H  2.9162402153 3.3743603230 2.0097601414
