12

C  1.0092500448 0.0086800000 0.0191800017
C  2.5047402382 0.0007300000 0.0714200065
C  3.2516000271 1.1146800518 0.0055300002
C  4.6792802811 0.7612200379 0.0036600004
O  5.6030201912 1.5520501137 -0.0494400039
S  4.8153500557 -0.9952800870 0.0428100042
N  3.1621901989 -1.2117100954 0.1948800087
H  0.6095100045 1.0268800259 -0.0314300023
H  0.5939400792 -0.4705900252 0.9116100669
H  0.6565500498 -0.5358700156 -0.8626800776
H  2.9192700386 2.1342301369 -0.0813100114
H  2.7022802830 -2.0137701035 -0.2323000133
