14

C  0.9380700588 0.0849300101 -0.0055000004
C  2.4232304096 0.0007200001 -0.0013100002
N  3.2275302410 1.0419700146 0.0036700002
C  4.5480904579 0.6245900393 0.0064000003
C  5.6155004501 1.6550401449 0.0118600009
C  4.7202801704 -0.7463800311 0.0031600003
S  3.1980602741 -1.5321500301 -0.0032700002
H  0.6138400435 1.1308900118 0.0025500003
H  0.5171700120 -0.4044900239 0.8789401054
H  0.5235000253 -0.3889500201 -0.9013200402
H  6.6117405891 1.2007700205 0.0269300025
H  5.5192303658 2.2955501080 0.8943900466
H  5.5400404930 2.2829701900 -0.8816700578
H  5.6422805786 -1.3092900515 0.0042000003
