20

C  0.9827000499 0.0124400007 0.0077700005
C  2.5006601810 0.0168400016 0.0426900014
C  3.0814402103 1.1234200001 0.9208400846
C  4.5113005638 0.6523600817 1.1359400749
C  4.3512306213 -0.8462800980 1.3984401226
N  5.5473003387 -1.5937001705 1.0358101130
C  3.1020703316 -1.2750101089 0.6133400202
H  0.6134900451 -0.8077200651 -0.6161900759
H  0.6042900681 0.9519400597 -0.4081000388
H  0.5586799979 -0.1076400056 1.0104600191
H  2.8740503788 0.1492800117 -0.9821600914
H  2.5520601273 1.1896200180 1.8784701824
H  3.0392704010 2.1026902199 0.4349900186
H  5.1021604538 0.8412200809 0.2302500159
H  4.9982099533 1.1696001291 1.9683901072
H  4.1637105942 -0.9997600317 2.4684703350
H  5.7481403351 -1.4626400471 0.0448400043
H  5.3741302490 -2.5911703110 1.1553701162
H  3.3268001080 -1.9774401188 -0.1980900168
H  2.4034402370 -1.7857401371 1.2887301445
