17

C  0.9098700881 -0.2161500156 -0.1620600224
C  2.3955101967 -0.1537100077 -0.1552200019
O  3.0105702877 -0.3311100304 -1.4383201599
C  3.1187303066 0.9725400805 -0.8468000889
C  4.5107002258 1.3605999947 -0.4574700296
C  4.5193505287 2.2254099846 0.7985100746
O  3.8870801926 3.4772503376 0.5559000373
H  0.5044100285 0.4146700203 0.6330000758
H  0.5754200816 -1.2442601919 0.0125900013
H  0.4892800450 0.1209000126 -1.1145299673
H  2.8450303078 -0.6291800141 0.7058300376
H  2.5469601154 1.7832502127 -1.2783100605
H  4.9601607323 1.9112901688 -1.2921501398
H  5.1238903999 0.4679600596 -0.2824100256
H  5.5462303162 2.4204401970 1.1219800711
H  3.9907202721 1.7324901819 1.6209300756
H  4.4078407288 3.9433102608 -0.1193800047
