16

C  0.9874600768 -0.0157900024 0.0050200000
C  2.5200002193 0.0000000000 0.0000000000
N  2.9929201603 -0.6746300459 1.2152301073
C  3.0487802029 -0.7596900463 -1.2504501343
O  4.4784502983 -0.8936800957 -1.2352800369
C  3.0020201206 1.3611700535 0.0000000000
C  3.3993003368 2.4830701351 0.0000000000
H  0.5839000344 0.4762600362 -0.8880400658
H  0.5798700452 0.5113600492 0.8766200542
H  0.5975700021 -1.0401400328 0.0229300018
H  2.8926801682 -0.0518700033 2.0139801502
H  3.9914004803 -0.8601300716 1.1037900448
H  2.7713303566 -0.2454600185 -2.1782102585
H  2.6332302094 -1.7729002237 -1.2929201126
H  4.8453702927 0.0076900008 -1.2256500721
H  3.7501902580 3.4897801876 0.0055200001
