14

C  1.0166801214 0.0319500007 0.0667899996
C  2.4992401600 -0.0173599999 -0.0194100011
C  3.2586503029 -1.1167701483 -0.1096600071
C  4.6526403427 -0.6584800482 -0.1698300093
O  5.6301903725 -1.3732202053 -0.2560400069
N  4.6280002594 0.7105500698 -0.1104600057
C  3.3059203625 1.2383100986 -0.0120500010
H  0.5784200430 -0.9708800912 0.0404700004
H  0.6046800613 0.6015300751 -0.7719000578
H  0.7047401071 0.5119800568 0.9995400906
H  2.9707701206 -2.1521599293 -0.1373200119
H  5.4823102951 1.2490601540 -0.1367800087
H  3.1049902439 1.8764700890 -0.8762600422
H  3.2080402374 1.7998800278 0.9203500748
