14

C  0.9914000630 -0.0124400007 0.0010700001
C  2.5046601295 0.0083600003 0.0273000021
C  3.0890803337 1.0805801153 0.9236201048
O  4.4006304741 0.6166800261 1.2741900682
N  4.3268103600 -0.7967301011 1.1914001703
C  3.1222002506 -1.1977000237 0.6602200866
O  2.6828100681 -2.3334102631 0.6620500088
H  0.6262600422 -0.8268800974 -0.6337900758
H  0.5962700248 0.9301000834 -0.3911100328
H  0.5747400522 -0.1690000147 1.0022500753
H  2.9073503017 0.0898300111 -0.9895501137
H  2.5171301365 1.2208700180 1.8481101990
H  3.1713602543 2.0428903103 0.4098200202
H  4.8452200890 -1.3650201559 1.8490401506
