20

C  0.9268900156 -0.0783400089 0.0969700068
C  2.4463603497 -0.0304400008 0.1976400167
C  3.0347204208 1.3909101486 0.1010600105
C  2.4814400673 2.3102302551 1.1953501701
C  4.5747203827 1.3772500753 0.1895700246
C  5.2535300255 0.6567300558 -0.9674900770
H  0.5881600380 -1.1181300879 0.0441700034
H  0.5761200190 0.4383600354 -0.8013700843
H  0.4517400265 0.3762300313 0.9705900550
H  2.8471901417 -0.6496500373 -0.6130900383
H  2.7564802170 -0.5024800301 1.1387400627
H  2.7508802414 1.8193601370 -0.8687800765
H  2.6681902409 1.8970100880 2.1929001808
H  1.4032500982 2.4616003036 1.0833200216
H  2.9488301277 3.3000502586 1.1467900276
H  4.8935704231 0.9194200635 1.1349301338
H  4.9430603981 2.4113299847 0.2022100240
H  5.0511603355 -0.4174300134 -0.9490400553
H  6.3386902809 0.7866700888 -0.9033300281
H  4.9212203026 1.0586001873 -1.9293601513
