12

C  2.8161301613 -1.1908700466 0.4059800208
C  2.2813100815 0.0115200011 0.1543000042
C  3.0115900040 1.2344400883 0.1261800081
C  2.5274302959 2.5125601292 -0.1151900068
C  3.5683503151 3.4807202816 -0.0592600033
N  4.7894401550 3.0321803093 0.2032200098
S  4.7097201347 1.3892300129 0.3939700127
H  2.1848602295 -2.0744302273 0.4082200229
H  3.8680002689 -1.3513401747 0.6150100231
H  1.2127201557 0.0659900084 -0.0428800024
H  1.4897301197 2.7400002480 -0.3191700280
H  3.4531402588 4.5462903976 -0.2112300098
