15

C  0.9974600673 0.0231900029 0.5389100313
C  2.3247401714 -0.0141200013 -0.1359500140
C  2.6257100105 0.9470400810 -1.2667201757
C  4.0233802795 1.2910301685 -1.6180200577
C  4.5285902023 -0.0817800090 -1.8858501911
N  3.6385402679 -1.0151700974 -1.7756401300
N  2.3927903175 -0.4886100292 -1.5148800611
H  0.9828200340 0.8167200685 1.2928200960
H  0.8037700653 -0.9284700751 1.0443000793
H  0.1777000129 0.2078200132 -0.1638300121
H  3.1137003899 -0.3117800057 0.5446300507
H  1.8702901602 1.6287900209 -1.6263601780
H  4.5746703148 1.7495001554 -0.7942200899
H  4.1049804688 1.9004200697 -2.5208401680
H  5.5831508636 -0.2640200257 -2.1325700283
