14

C  -0.0321100019 -0.1699900180 -0.1127100065
C  1.4557502270 -0.3699900210 -0.1797900200
C  1.9842700958 -1.5625001192 -0.4997900426
O  2.1563801765 0.7771300673 0.1162400097
C  3.5855402946 0.7192900777 0.1303200126
C  4.1405401230 2.0419001579 0.4618000388
N  4.6064906120 3.0746202469 0.7194400430
H  -0.3376800418 0.6223200560 -0.8035900593
H  -0.3263500333 0.1223800108 0.9007600546
H  -0.5864600539 -1.0767300129 -0.3757500350
H  1.3407601118 -2.4112501144 -0.7171800733
H  3.0481903553 -1.7536400557 -0.5629100204
H  3.9544603825 0.4151900113 -0.8556200266
H  3.9164602757 -0.0065800003 0.8827400804
