12

N  0.9820900559 -0.0674500093 0.0061000008
C  2.3284401894 -0.0263100006 -0.1812500209
N  2.9919903278 -1.1312501431 -0.2814300060
C  3.0361502171 1.2757301331 -0.2709700167
C  4.3687705994 1.3180100918 -0.4043300152
C  5.0677103996 2.5469200611 -0.4956500530
N  5.6264500618 3.5624704361 -0.5649800301
H  0.5383500457 0.7597100139 0.3894600272
H  0.5963600278 -0.9266600609 0.3771700263
H  2.3495202065 -1.9244401455 -0.2345100194
H  2.4330701828 2.1752903461 -0.2326300144
H  4.9594302177 0.4087900519 -0.4479200542
