14

C  0.0188600011 0.4353200495 -0.0510100052
C  1.4519900084 0.0576400049 -0.2223100066
C  2.4686200619 0.9178301096 -0.0993200094
O  3.7943100929 0.5065800548 -0.2523100078
C  4.6881799698 1.4425001144 -0.6867200136
N  4.4037203789 2.6615700722 -1.0018200874
O  5.5765204430 3.3105502129 -1.4105800390
H  -0.4388200343 -0.1834200025 0.7268300653
H  -0.5248100758 0.2706900239 -0.9863300920
H  -0.1008300111 1.4850300550 0.2349600196
H  1.6624201536 -0.9805400968 -0.4650500417
H  2.3530902863 1.9648101330 0.1501400024
H  5.6958403587 0.9983400702 -0.7381300926
H  5.2517704964 4.1998605728 -1.6480600834
