16

C  1.0405700207 0.2851200104 -0.6474400163
C  2.3716802597 0.3726500273 0.0302000027
N  3.3678202629 0.9630200267 -0.5475600362
N  4.4970703125 0.9446200132 0.2125100195
C  5.4313602448 -0.1481700093 -0.1017800048
C  5.2436804771 2.2105801105 0.1875300109
H  0.7712100148 -0.7678400874 -0.7617500424
H  1.0668700933 0.7666400671 -1.6278501749
H  0.2910799980 0.7718300819 -0.0183400027
H  2.4502501488 -0.0853200033 1.0333900452
H  4.9233303070 -1.1154201031 -0.0214100014
H  6.2652602196 -0.1673000008 0.6081400514
H  5.8308706284 -0.0574800037 -1.1179500818
H  4.5892806053 3.0370302200 0.4866300523
H  5.6346402168 2.4308302402 -0.8122400641
H  6.0764808655 2.1902801991 0.8988200426
