17

C  2.1718502045 2.4573302269 -2.2439403534
O  3.4329001904 2.2080202103 -1.6361100674
C  3.2881803513 1.4778200388 -0.4102700353
C  4.6700305939 1.2528201342 0.2357400209
C  5.5993804932 0.4711800516 -0.6934700608
N  5.2863206863 2.5418300629 0.5819600224
H  2.3409199715 3.0125801563 -3.1702003479
H  1.5411602259 3.0601902008 -1.5846900940
H  1.6720901728 1.5148701668 -2.4875001907
H  2.8151602745 0.5109900832 -0.6212600470
H  2.6416802406 2.0400102139 0.2748500407
H  4.5342402458 0.6803600788 1.1595801115
H  5.8168706894 1.0225700140 -1.6155501604
H  5.1481404305 -0.4876500368 -0.9731500745
H  6.5543503761 0.2555600107 -0.2002100050
H  5.2257404327 3.1403002739 -0.2463500202
H  6.2799506187 2.4133803844 0.7624200583
