15

O  1.1031100750 0.0216400027 0.6472400427
C  2.4465401173 0.0091500012 0.1583400220
C  2.6966502666 1.1952000856 -0.7749600410
O  3.9858803749 1.1848001480 -1.3943800926
C  4.3414201736 -0.0323700048 -1.9105401039
C  3.7785303593 -1.1992000341 -1.5983201265
C  2.6967103481 -1.3160101175 -0.5710600019
H  0.9315301180 0.9024700522 1.0271100998
H  3.1228301525 0.0748800039 1.0193101168
H  2.6125802994 2.1297402382 -0.2065900266
H  1.9248900414 1.2520900965 -1.5556800365
H  5.1691608429 0.0697299987 -2.6032702923
H  4.1239404678 -2.1127202511 -2.0759003162
H  1.7804201841 -1.6731501818 -1.0503801107
H  2.9745702744 -2.0776603222 0.1652700156
