18

C  1.0618400574 0.5129000545 0.1541600078
C  2.4007301331 0.5023800135 0.1046900079
C  3.2858703136 1.5231800079 0.7508900166
N  4.0813803673 2.1927800179 -0.2756200135
C  5.0042605400 3.1803002357 0.2896800041
C  6.4412808418 2.8006303310 0.5063000321
C  6.0753307343 3.7475204468 -0.5991900563
H  0.4840500355 -0.2641000152 -0.3367600441
H  0.5148000121 1.2916501760 0.6767600775
H  2.9038703442 -0.3000400066 -0.4306000173
H  3.9419105053 1.0125200748 1.4660301208
H  2.6913702488 2.2569601536 1.3094201088
H  3.4418301582 2.6423301697 -0.9306300879
H  4.5647501945 3.8787302971 0.9995300770
H  6.7580003738 1.8013402224 0.2303800136
H  6.9473004341 3.2039501667 1.3751500845
H  6.3306303024 4.7937402725 -0.4790100455
H  6.1484904289 3.3857703209 -1.6183600426
