15

C  1.6159001589 -0.2995800078 -0.7180801034
O  3.0200202465 -0.1849300116 -0.5186500549
N  3.3206202984 1.1605801582 -0.2604800165
C  4.5921802521 1.3255701065 -0.0524800047
C  5.6104602814 0.2130700201 -0.0936900079
C  5.0972404480 2.7199802399 0.2093000114
H  1.3800600767 -1.3475301266 -0.9180600643
H  1.3046600819 0.3027300239 -1.5770201683
H  1.0784001350 0.0178400017 0.1807100177
H  5.2742700577 -0.6334800720 0.5110600591
H  6.5682806969 0.5615000129 0.3028700352
H  5.7520804405 -0.1076800078 -1.1293301582
H  4.2708902359 3.4363102913 0.2224800289
H  5.8025407791 3.0017201900 -0.5776800513
H  5.6073203087 2.7455701828 1.1762300730
