15

C  0.8246901035 0.0798600018 0.0601500049
C  2.2816302776 0.0751600042 0.3877600133
C  3.1996800900 0.8124200106 -0.2579900026
C  4.6314101219 0.8335300684 0.0354000032
C  5.5036506653 -0.2787600160 -0.4857600331
N  5.5309605598 1.0446801186 -1.0949300528
H  0.5038500428 -0.9268800616 -0.2253200114
H  0.5865200758 0.7603700757 -0.7636300921
H  0.2467900217 0.3896900415 0.9363400936
H  2.5939402580 -0.5762700438 1.1999200583
H  2.8721101284 1.4603000879 -1.0698500872
H  4.9127302170 1.3164200783 0.9652400613
H  5.0537705421 -1.0647400618 -1.0799499750
H  6.3717603683 -0.5693200231 0.0918000042
H  6.3566803932 1.5670402050 -0.8001400828
