12

N  1.1303400993 0.0141800009 0.3299300373
C  2.3775601387 0.0145700006 0.0205800012
C  3.2026402950 -1.2671000957 -0.0946300030
C  4.5368099213 -0.6543600559 -0.4793000519
C  4.4474902153 0.6805600524 -0.5511800647
N  3.1820502281 1.0827901363 -0.2556000054
H  0.7871500850 0.9772200584 0.3472400308
H  2.8040502071 -1.9133701324 -0.8796300888
H  3.2484202385 -1.7842901945 0.8663000464
H  5.4288902283 -1.2325701714 -0.6676400304
H  5.2203602791 1.3939800262 -0.8007600307
H  2.8989002705 2.0496902466 -0.2659800053
