12

C  0.6713200808 1.2113600969 -0.2760400176
O  -0.7601200938 1.3726201057 -0.2124600261
C  -1.3587001562 0.0638300031 -0.2984900475
C  -0.3263400197 -0.9006100297 0.1615900099
O  0.7123600245 -1.2210500240 -0.7702800632
C  0.9577300549 -0.1748400182 0.1757100075
H  1.0006700754 1.3808701038 -1.3063800335
H  1.1313601732 1.9600101709 0.3750000298
H  -2.2479703426 0.0497900024 0.3376500309
H  -1.6564401388 -0.1210400090 -1.3356502056
H  -0.5952900052 -1.5819901228 0.9497001171
H  1.6666800976 -0.3032700121 0.9748000503
