15

N  1.0250101089 -0.1006000116 -0.1365400106
C  2.4969801903 -0.0326200016 -0.0427000038
C  3.3301703930 -0.7401800156 -1.0861101151
N  2.6386702061 -1.4854301214 -2.1569602489
C  3.2721703053 0.7695400715 -1.0620400906
C  4.4282903671 1.5000702143 -0.6238600612
C  5.3943905830 2.1137201786 -0.2644000351
H  0.6098400354 0.7052600980 0.3320400119
H  0.6818000674 -0.9210500717 0.3625300527
H  2.8835701942 -0.0490000062 0.9744800329
H  4.2558202744 -1.2022501230 -0.7504500151
H  1.7065402269 -1.0730000734 -2.2658700943
H  2.4548101425 -2.4380102158 -1.8447201252
H  2.7026002407 1.2476701736 -1.8531302214
H  6.2547206879 2.6594703197 0.0482400022
