12

C  1.0035500526 0.0881400034 0.1779500097
C  2.4398300648 -0.0228900015 -0.2682300210
O  2.8492701054 -1.0402500629 -0.8312800527
C  3.3369302750 1.1797300577 -0.0612700060
C  3.3556802273 1.6399800777 1.3341300488
C  3.3745300770 2.0232300758 2.4723000526
H  0.5646500587 1.0081400871 -0.2163700163
H  0.9479900599 0.0776300058 1.2688301802
H  0.4339400530 -0.7608100772 -0.2111300081
H  2.9914600849 1.9767100811 -0.7278300524
H  4.3519701958 0.9088100791 -0.3725000322
H  3.3979601860 2.3638501167 3.4827203751
