20

C  2.0765399933 -0.7123800516 -1.2751601934
N  1.7934101820 0.4195000231 -0.3998000324
C  3.0114202499 1.1314200163 0.0623300038
C  3.7884004116 0.4243400395 1.1497100592
C  3.7786602974 1.9766901731 -0.9320600629
C  2.9183301926 2.6528801918 0.0989700109
C  3.5388503075 3.4769403934 1.1755001545
H  2.6072802544 -0.3998800218 -2.1792602539
H  1.1341900826 -1.1759700775 -1.5821501017
H  2.6642801762 -1.4795000553 -0.7638500333
H  1.1656900644 1.0586001873 -0.8868901134
H  4.7209405899 0.9387900233 1.4004400969
H  4.0619201660 -0.5898100138 0.8406500220
H  3.1844103336 0.3532200158 2.0607302189
H  3.4440903664 2.0071702003 -1.9625401497
H  4.8564705849 2.0359101295 -0.8314400911
H  1.9925501347 3.1081602573 -0.2375000119
H  4.5783605576 3.2008602619 1.3766801357
H  2.9679303169 3.3766901493 2.1037302017
H  3.5305104256 4.5331001282 0.8865400553
