16

N  0.8853300810 0.1276500076 0.3335500360
C  2.3046100140 0.0339800045 -0.0364800058
C  3.1319501400 0.9548400640 0.8848300576
O  3.3939902782 -0.1539100111 1.7975801229
C  3.0002901554 -1.0913600922 0.7526201010
C  2.5085501671 0.1443700045 -1.4905601740
C  2.2611000538 -0.8826500177 -2.3150801659
H  0.7303900719 0.0408900045 1.3391500711
H  0.3055700064 -0.5862700343 -0.1027900055
H  2.5995602608 1.7728202343 1.3806301355
H  4.0712003708 1.3392901421 0.4708600342
H  3.8860402107 -1.5378201008 0.2863000333
H  2.3611001968 -1.8901801109 1.1420601606
H  2.8531701565 1.0929400921 -1.8928800821
H  1.9035301208 -1.8423801661 -1.9560900927
H  2.4075701237 -0.7752000690 -3.3858702183
