19

C  0.9818000793 0.0595100038 0.1076900065
C  2.5088601112 0.0045600007 -0.0075600008
C  2.9789900780 -1.3622601032 -0.5223000646
C  2.7069501877 -1.5360301733 -2.0142202377
C  3.2019603252 -0.3294700086 -2.8010203838
O  2.6442103386 0.8787900805 -2.2862701416
C  3.0263302326 1.1121300459 -0.9306000471
H  0.6663400531 1.0130400658 0.5442299843
H  0.6139700413 -0.7412400842 0.7574400306
H  0.4895600379 -0.0394500047 -0.8641900420
H  2.9210503101 0.1615800112 0.9973300695
H  2.5080201626 -2.1746501923 0.0430800021
H  4.0601305962 -1.4475101233 -0.3524300456
H  3.1858103275 -2.4499001503 -2.3819901943
H  1.6278201342 -1.6506201029 -2.1699101925
H  4.2962007523 -0.2635800242 -2.7800703049
H  2.8976202011 -0.4188200235 -3.8487203121
H  4.1189503670 1.1888401508 -0.8734600544
H  2.6184201241 2.0835502148 -0.6309800148
