17

C  1.0297300816 0.0038200004 0.1468200088
C  2.5351603031 0.0417200029 -0.0765800104
C  3.0332803726 -1.1723901033 -0.8944100738
N  3.5913002491 -0.6501900554 -2.1799900532
C  3.4735002518 0.6377600431 -2.0647201538
N  2.8770401478 1.1466100216 -0.9561601281
C  3.2052102089 2.4421601295 -0.4117200077
H  0.6919700503 0.9003100991 0.6764600277
H  0.7473400831 -0.8708600402 0.7414301038
H  0.4841700494 -0.0397000052 -0.8029100299
H  3.0660901070 0.0999500081 0.8808100224
H  2.2385201454 -1.8951801062 -1.1038200855
H  3.8322501183 -1.6919401884 -0.3545100391
H  3.8319501877 1.3603401184 -2.8144202232
H  2.6613800526 2.6288499832 0.5208100080
H  2.9335403442 3.2293102741 -1.1206500530
H  4.2762703896 2.5148601532 -0.2042900175
