14

C  0.9696100354 0.0049300003 0.5469900370
C  2.3930602074 -0.0355000049 0.1117700115
C  2.8315303326 0.7373500466 -1.1014600992
O  4.2277102470 1.1102001667 -1.1994501352
N  4.9703001976 -0.0872000083 -1.4591500759
C  4.1761102676 -1.1057100296 -1.4231801033
C  2.7813901901 -0.7586401105 -1.1545600891
H  0.7813700438 0.9086300731 1.1346201897
H  0.7437200546 -0.8628700376 1.1741000414
H  0.2784100175 0.0003000000 -0.3020800054
H  3.0721001625 -0.0695200041 0.9563500285
H  2.1067202091 1.3061600924 -1.6681600809
H  4.4897403717 -2.1471700668 -1.5825200081
H  2.0214400291 -1.2169400454 -1.7713001966
