17

C  0.8825900555 0.5969300270 -1.0166400671
C  2.3767201900 0.6027200222 -1.0085901022
C  3.1189804077 1.1250500679 -0.0187500007
C  4.6210203171 1.1379899979 0.0000000000
C  5.1030402184 2.4991700649 0.0000000000
C  5.5003204346 3.6210601330 0.0000000000
C  5.9823403358 4.9822306633 0.0000000000
H  0.5128800273 1.1456401348 -1.8882101774
H  0.4616900384 1.0593900681 -0.1183100119
H  0.5144000053 -0.4317600131 -1.0756000280
H  2.8635401726 0.1580600142 -1.8740501404
H  2.6267001629 1.5700701475 0.8442000151
H  5.0268106461 0.5924500227 -0.8597600460
H  4.9637899399 0.6107500792 0.8974400759
H  5.1884303093 5.6813106537 -0.2803100348
H  6.8053708076 5.1088404655 -0.7100300789
H  6.3477005959 5.2709007263 0.9903300405
