15

C  1.0073900223 0.0085000005 0.1458400190
C  2.4816401005 0.0341000035 -0.0275600012
C  3.2882604599 -0.9997701049 -0.2636700273
O  4.6341605186 -0.7188600302 -0.3908600509
C  4.7061204910 0.7212300897 -0.2412900180
C  3.3087801933 1.2084400654 0.0316900015
C  2.9336202145 2.4668002129 0.2849700153
H  0.6127200723 -1.0096000433 0.0579200052
H  0.5175400376 0.6212200522 -0.6183699965
H  0.7248500586 0.3904200494 1.1323001385
H  3.0354301929 -2.0415401459 -0.3679500222
H  5.1028604507 1.1394300461 -1.1727401018
H  5.3857603073 0.9467700720 0.5868700147
H  3.6613502502 3.2716703415 0.3080300391
H  1.8989201784 2.7286603451 0.4790300429
