16

C  2.2045800686 -0.5409100056 -1.3837301731
C  2.3657901287 0.0608900040 0.0026600002
C  3.3016703129 1.2579400539 -0.0449900031
C  2.7451403141 2.5716903210 -0.6510600448
N  3.2438004017 3.2536804676 0.5481100678
C  3.3889603615 2.0936601162 1.2484900951
O  3.4664103985 1.9065600634 2.4368903637
H  1.5557200909 -1.4210100174 -1.3439201117
H  3.1726102829 -0.8471700549 -1.7937401533
H  1.7604300976 0.1800700128 -2.0774703026
H  2.7755303383 -0.6995400190 0.6773100495
H  1.3829400539 0.3459300399 0.3952000439
H  4.3020906448 0.9913001060 -0.4129100144
H  1.6575601101 2.6454100609 -0.7480601072
H  3.2333302498 2.9075000286 -1.5690500736
H  2.8494701385 4.0422301292 1.0414201021
