12

N  1.0000001192 0.0000000000 0.0000000000
C  2.1510102749 0.0000000000 0.0000000000
C  3.5950102806 0.0000000000 0.0000000000
C  4.1612901688 -1.2484201193 -0.6948200464
C  4.6321702003 -0.6887400746 -1.9849702120
C  4.5756101608 0.6354500651 -1.9102902412
O  4.1006302834 1.1571401358 -0.7255401015
H  3.9705502987 0.0634700060 1.0277299881
H  3.4246904850 -2.0470900536 -0.8271400332
H  5.0152802467 -1.6530702114 -0.1402200162
H  4.9919300079 -1.2597301006 -2.8268003464
H  4.8736205101 1.3664500713 -2.6448202133
