9

C  0.9885400534 0.0186000019 -0.0836600065
C  2.1859300137 -0.0424300022 -0.0206600018
C  3.6117603779 -0.1150100082 0.0578000024
C  4.3818302155 -0.8016600609 -1.0377200842
O  4.2747707367 0.6254799962 -0.9772800207
H  -0.0733100101 0.0791800097 -0.1442400068
H  4.0548100471 -0.0852000043 1.0461200476
H  3.8387303352 -1.3114900589 -1.8235501051
H  5.3395304680 -1.2416501045 -0.7914800644
