13

O  1.0792801380 -0.0303200018 0.2983800173
C  2.2782502174 -0.0402100012 0.1152400076
C  3.3244001865 1.0777900219 -0.0719300061
C  4.2782502174 -0.0190300029 -0.6044500470
C  3.3771302700 -1.1354300976 0.0016900001
C  3.0561003685 -2.2273402214 -0.8893100619
C  2.7977001667 -3.1443202496 -1.6208900213
H  3.6328001022 1.5337101221 0.8734800816
H  3.0498800278 1.8497401476 -0.7933000922
H  4.3510503769 -0.0267400015 -1.6993701458
H  5.2935104370 0.0230900031 -0.1972100139
H  3.7117803097 -1.4665900469 0.9927600622
H  2.5613002777 -3.9603703022 -2.2645401955
