12

C  0.9932600856 -0.0299400035 0.0107600009
C  2.5200002193 0.0000000000 0.0000000000
C  3.0598502159 -0.7621200681 -1.2089501619
C  3.0020201206 1.3611700535 0.0000000000
N  3.3862302303 2.4461600780 0.0000000000
H  0.5964400172 0.4897300303 0.8907601237
H  0.6233800650 -1.0608600378 0.0360400006
H  0.5745300055 0.4580100179 -0.8775000572
H  2.8753602505 -0.5059700608 0.9060201049
H  2.7320203781 -0.3066700101 -2.1505002975
H  2.7168500423 -1.8021000624 -1.1985801458
H  4.1556406021 -0.7705300450 -1.2097001076
