16

C  0.9303000569 0.0311900023 0.0222400017
C  2.4448201656 -0.0049600005 0.0143200010
C  3.1698002815 0.9928900599 0.9404301047
N  4.1544003487 -0.0700400099 1.2498201132
C  3.1272103786 -1.0847600698 0.8934100866
C  3.7238001823 -2.1975100040 0.1913400143
C  4.2151403427 -3.1275801659 -0.3895200193
H  0.5234100223 -0.8171001077 -0.5373600125
H  0.5651100278 0.9500700831 -0.4473400414
H  0.5286100507 -0.0113100009 1.0399100780
H  2.8305699825 0.0355700031 -1.0155800581
H  2.5966203213 1.3174700737 1.8170900345
H  3.5880403519 1.8764802217 0.4497100115
H  4.9503803253 -0.0765700042 0.6111600399
H  2.5309202671 -1.3948100805 1.7618501186
H  4.6508603096 -3.9555103779 -0.8991100788
