16

C  0.8896300793 -0.5153800249 -0.8066000938
N  2.0232200623 -0.5395200849 0.1062800139
C  2.5264003277 -1.8570201397 0.4610200226
C  2.7620801926 0.5695800185 0.4969700575
O  3.7172703743 0.4997100532 1.2680100203
C  2.3699901104 1.8879901171 -0.0786900073
C  2.8436801434 3.0252003670 0.4482100308
H  0.2792100310 0.3764500320 -0.6507600546
H  0.2566100061 -1.3908700943 -0.6350100636
H  1.2674601078 -0.5315500498 -1.8327701092
H  1.7048602104 -2.4579403400 0.8621700406
H  3.3215200901 -1.8117600679 1.2096900940
H  2.9201002121 -2.3326802254 -0.4423400164
H  1.7360202074 1.9245001078 -0.9521000981
H  3.5043404102 3.0184202194 1.3110500574
H  2.5843603611 3.9878804684 0.0222100019
