18

C  1.1003501415 0.1774600148 0.1436100155
C  2.5701501369 -0.0841800123 -0.1852100194
C  2.8349401951 -1.5474700928 -0.5607300401
C  2.7540302277 -1.5644001961 -2.0761301517
C  3.2397501469 -0.2002200037 -2.4446201324
C  2.3122701645 0.9737200737 -2.4633202553
N  3.1394102573 0.7292400599 -1.2874100208
H  0.9218600392 1.2421300411 0.3222600222
H  0.8182100058 -0.3641700447 1.0528601408
H  0.4274700284 -0.1607700139 -0.6480300426
H  3.1456801891 0.1467500180 0.7200200558
H  2.1420903206 -2.2560200691 -0.0970900059
H  3.8513903618 -1.8228000402 -0.2526700199
H  3.3762402534 -2.3557901382 -2.5037202835
H  1.7226201296 -1.7153401375 -2.4152901173
H  4.1752505302 -0.1727500111 -2.9850301743
H  2.5996801853 1.8306101561 -3.0616202354
H  1.2449901104 0.8121400476 -2.4222900867
