14

C  0.9249100685 0.0477000028 -0.0075800004
C  2.4048202038 -0.0071400008 -0.0011000001
C  3.2747101784 1.0667001009 0.0024500003
O  4.5671801567 0.6495200992 0.0086000003
C  4.5378303528 -0.7089000940 0.0092700003
C  3.2389802933 -1.1526200771 0.0031100002
N  2.8418900967 -2.4335002899 0.0017300001
H  0.5637100339 1.0813400745 0.0013000001
H  0.5185200572 -0.4595300257 0.8732801080
H  0.5274000764 -0.4414600134 -0.9026700854
H  3.1355702877 2.1388301849 0.0014900002
H  5.5014805794 -1.1963101625 0.0143600013
H  1.8651601076 -2.7059202194 -0.0217400026
H  3.4954502583 -3.2099401951 -0.0132000009
