17

C  3.6068403721 -1.2813900709 -0.5181300640
C  2.8085403442 -0.2028300166 0.1977400184
O  2.8709404469 -0.4195800126 1.6158001423
C  3.2494502068 1.2468600273 -0.1283100098
O  2.4067101479 2.1431500912 0.6015100479
C  4.6966900826 1.5430401564 0.1905600131
C  5.1556706429 2.4397602081 1.0763400793
H  3.5925602913 -1.1332200766 -1.6023101807
H  3.1853902340 -2.2686402798 -0.2977600098
H  4.6468706131 -1.3113300800 -0.1759800166
H  1.7505700588 -0.3074800372 -0.0702800080
H  3.8026301861 -0.3200600147 1.8837901354
H  3.0875701904 1.4455001354 -1.1937600374
H  2.2232301235 1.6943501234 1.4497200251
H  5.4301104546 0.9836100936 -0.3869100511
H  4.4836802483 3.0582501888 1.6639300585
H  6.2214508057 2.5919103622 1.2156600952
