17

C  1.9834600687 -0.4998900294 -1.4650900364
O  2.1710000038 0.0070800004 -0.1514600217
C  3.0377302170 1.1612800360 -0.0440100022
C  2.4592001438 2.5276403427 -0.4407200217
O  2.9215002060 3.1279602051 0.7952300906
C  3.1498701572 1.8041901588 1.3547900915
C  4.4997601509 1.7267301083 2.0372099876
H  1.3159900904 -1.3635601997 -1.4129501581
H  2.9418902397 -0.8165700436 -1.8859502077
H  1.5279401541 0.2626600266 -2.1031501293
H  4.0139503479 0.9614600539 -0.5034000278
H  1.3693901300 2.5798301697 -0.5247500539
H  2.9220802784 2.9904401302 -1.3163801432
H  2.3319902420 1.5333402157 2.0347301960
H  5.3045506477 2.0681800842 1.3784201145
H  4.7197904587 0.6975800395 2.3373301029
H  4.5124301910 2.3496003151 2.9370303154
