18

C  2.3307101727 -0.4784800410 -1.3775401115
C  2.4126801491 0.1416300088 0.0114600006
N  3.3013901711 1.3065800667 0.0036100002
C  2.6036100388 2.5133101940 -0.5264800191
C  3.2840201855 3.3205802441 0.6088500619
O  4.5695500374 3.9088001251 0.2981900275
C  3.3106801510 1.9565801620 1.3450402021
H  1.7105702162 -1.3803000450 -1.3496900797
H  3.3230502605 -0.7648900747 -1.7418200970
H  1.8852301836 0.2128200233 -2.1001501083
H  2.8229701519 -0.6106700897 0.6963900328
H  1.4018499851 0.3790700436 0.3673700392
H  1.5076800585 2.5097501278 -0.4657800198
H  2.8993000984 2.7928702831 -1.5422300100
H  2.6390302181 4.0714802742 1.0759900808
H  5.0602107048 3.1693003178 -0.1078300029
H  4.2113204002 1.7578501701 1.9337401390
H  2.4297702312 1.7806601524 1.9760901928
