21

C  0.9780501127 -0.0321200006 0.0020100002
C  2.4986102581 -0.0118000004 0.0250900034
C  3.0395603180 1.4194601774 -0.0428200029
C  4.5726604462 1.4611301422 -0.0159700010
O  5.0895204544 0.7720400691 -1.1520100832
C  5.0857405663 2.9057502747 -0.0128000006
C  6.6058702469 2.9816002846 0.0432600006
H  0.6120700836 -1.0619500875 0.0588700064
H  0.5944900513 0.4140000343 -0.9211100936
H  0.5647500157 0.5229400396 0.8500200510
H  2.8740103245 -0.6003400683 -0.8196700811
H  2.8510401249 -0.4977000356 0.9421200752
H  2.6408803463 1.9991301298 0.7985800505
H  2.6756701469 1.8872801065 -0.9665400386
H  4.9386105537 0.9414700866 0.8768301010
H  4.7690801620 1.2284400463 -1.9486602545
H  4.6694903374 3.4456100464 0.8458200693
H  4.7513504028 3.4226202965 -0.9208400846
H  6.9908103943 2.4743001461 0.9333300591
H  6.9294104576 4.0265302658 0.0812400058
H  7.0602707863 2.5220103264 -0.8397200704
