12

C  0.6961700320 -0.1278600097 0.1566200256
C  2.1740300655 -0.2699400187 -0.0958800092
O  2.6819801331 -1.3704000711 -0.3057700098
C  2.9755301476 1.0033900738 -0.1190800071
C  4.4496402740 0.7744400501 -0.2688100338
O  5.2881903648 1.4781501293 0.2898100317
H  0.5326200724 0.3655500412 1.1177901030
H  0.2297500223 -1.1165701151 0.1851300150
H  0.2431400120 0.4553600252 -0.6490700245
H  2.7996201515 1.5479800701 0.8137100935
H  2.6407701969 1.6045401096 -0.9694300890
H  4.7572207451 0.0156200007 -1.0089300871
