17

C  1.4735500813 -0.3089500368 0.3536900282
C  2.9689500332 -0.1919200122 0.1084100083
C  3.4123103619 1.2495200634 -0.0704800114
O  2.6212201118 2.1945502758 -0.0473800004
N  4.7823500633 1.4477701187 -0.2692500055
C  5.8049302101 0.4154400229 -0.1769300103
N  5.2446603775 2.7917702198 -0.3503300250
H  1.1871601343 -1.3592400551 0.4717300236
H  0.9030000567 0.1085700095 -0.4829100370
H  1.1804400682 0.2294200212 1.2616200447
H  3.2242302895 -0.7529400587 -0.7964600921
H  3.5036103725 -0.6268300414 0.9593500495
H  5.5159206390 -0.4452000558 -0.7847000360
H  5.8947305679 0.1035500094 0.8672100902
H  6.7663006783 0.7961701155 -0.5345700383
H  4.6435403824 3.3408401012 0.2780700326
H  4.9761004448 3.1359901428 -1.2770700455
