15

C  0.9167000651 0.1723500043 0.0446700044
C  2.4196503162 0.0094000008 -0.1045800075
O  2.6938402653 -0.5785800815 -1.3747601509
C  3.1359801292 1.3289802074 -0.0361299999
C  3.9817202091 1.6963601112 1.1541900635
N  4.6037101746 1.3211400509 -0.1133300066
H  0.6618500352 0.6296500564 1.0054501295
H  0.4164000452 -0.7990400195 -0.0284800008
H  0.5069800615 0.7997800708 -0.7547701001
H  2.7867901325 -0.6809500456 0.6639500260
H  3.6641602516 -0.5199400187 -1.4690400362
H  2.6461701393 2.1099500656 -0.6061400175
H  4.0903100967 0.9840301275 1.9625002146
H  4.0494699478 2.7381701469 1.4400501251
H  4.9405903816 2.1493501663 -0.6107300520
