14

C  0.9061700106 -0.0176000018 0.1240300089
C  2.4199202061 0.0019500001 -0.0443300009
C  3.1453001499 1.0240800381 0.8450800180
O  3.7484002113 -0.0202600025 1.6423600912
C  3.1665203571 -1.0426300764 0.8012600541
C  2.8123002052 0.0350700058 -1.4344201088
N  3.1178002357 0.0619100034 -2.5552301407
H  0.6188099980 -0.0432200022 1.1815501451
H  0.4659300447 -0.8989200592 -0.3568600118
H  0.4477100372 0.8741500974 -0.3188900352
H  2.5056402683 1.6666301489 1.4585502148
H  3.9089004993 1.6428500414 0.3625500500
H  3.9428102970 -1.6248902082 0.2929600179
H  2.5401000977 -1.7240202427 1.3868200779
