11

C  1.2168000937 -0.4687300324 -0.4193500280
C  2.5030901432 -0.3542300463 -0.0829900056
O  3.1646003723 0.8439800739 -0.1576100141
C  4.4818005562 0.9068900943 0.2168300152
C  5.1781306267 2.0432600975 0.1483200043
H  0.7060900331 -1.4227800369 -0.3565500379
H  0.6536000371 0.3924900293 -0.7634000778
H  3.0887701511 -1.1943800449 0.2622500062
H  4.9152202606 -0.0179700013 0.5703300238
H  4.7163505554 2.9571702480 -0.2103400081
H  6.2191104889 2.0790300369 0.4486900270
