17

C  0.9471400976 -0.0022200001 0.0502100065
C  2.4614200592 0.0088300006 0.0131200012
C  3.1719903946 1.0458101034 0.9187901020
C  4.2433400154 -0.0306900032 1.2330801487
C  3.1845703125 -1.0904400349 0.8310800791
C  5.4344706535 0.0096100010 0.4033500254
C  6.4191603661 0.0419400036 -0.2836100161
H  0.5555000305 -0.8611500859 -0.5040200353
H  0.5446700454 0.9061800838 -0.4092600346
H  0.5675900578 -0.0595000051 1.0755600929
H  2.8213200569 0.0543100052 -1.0247801542
H  2.5931601524 1.3470001221 1.8007900715
H  3.5178403854 1.9512901306 0.4108400047
H  4.5009303093 -0.0726900026 2.2985403538
H  3.5407803059 -1.9474201202 0.2512200177
H  2.6101102829 -1.4693801403 1.6856601238
H  7.2912707329 0.0703700110 -0.8949300647
