14

O  2.1386003494 -0.3963600397 -1.3294700384
C  2.3235101700 0.0470200032 0.0088300006
C  3.1142902374 1.3361400366 -0.0167600010
C  2.3497002125 2.5814301968 -0.4728400409
O  2.4558100700 3.1851601601 0.8375600576
C  3.2214601040 2.0621402264 1.3260701895
H  1.6355401278 -1.2285200357 -1.2894601822
H  2.8692502975 -0.7288000584 0.5550800562
H  1.3400601149 0.1772100031 0.4729200304
H  4.0861501694 1.2219201326 -0.5124400258
H  1.3040500879 2.4333703518 -0.7583300471
H  2.8552801609 3.1854403019 -1.2319000959
H  4.2334103584 2.3636202812 1.6121201515
H  2.7278501987 1.5839201212 2.1772999763
