17

N  0.9798001051 -0.0522700027 0.3194800317
C  2.4212503433 0.0270300005 0.0980400071
C  2.7948000431 1.3107300997 -0.7023400068
N  4.1589002609 1.2632001638 -1.2591501474
C  4.2648801804 0.1465200186 -2.2070603371
C  3.7201802731 -1.1451301575 -1.6682701111
C  2.8928203583 -1.2111901045 -0.6110000610
H  0.6567700505 0.8070600629 0.7598100901
H  0.7812100649 -0.8025300503 0.9779700637
H  2.9217202663 0.0666300058 1.0736401081
H  2.0818800926 1.4840601683 -1.5200501680
H  2.7173202038 2.1817800999 -0.0402500033
H  4.8127703667 1.0845201015 -0.4977700412
H  5.3227305412 0.0122400010 -2.4585802555
H  3.7467203140 0.3978600204 -3.1400501728
H  4.0147805214 -2.0569901466 -2.1792302132
H  2.5468001366 -2.1771302223 -0.2572100163
