12

O  1.1451700926 0.0259400029 -0.4688300192
C  2.3212800026 0.0034500002 -0.1434300095
C  3.1494402885 -1.2341101170 0.0409200042
C  4.4887599945 -0.6733000278 0.5046500564
C  4.3213701248 0.8123800159 0.4599900246
C  3.1026201248 1.2228600979 0.1028500050
H  3.2444202900 -1.7624801397 -0.9115900397
H  2.7016003132 -1.8849301338 0.7960800529
H  5.3017306328 -0.9978501201 -0.1532300115
H  4.7221803665 -1.0028300285 1.5230801105
H  5.1281805038 1.4903701544 0.7077100277
H  2.7168903351 2.2214400768 -0.0010300002
