20

C  1.1422799826 0.0968800038 0.1582500190
C  2.6617202759 0.0053400001 -0.0326700024
C  2.9503803253 -0.7194700241 -1.3535300493
N  3.2424402237 1.3579801321 -0.0675800070
C  3.2297801971 1.9896701574 1.2826900482
C  4.6366906166 2.5290002823 0.9665000439
C  4.7306504250 1.3127801418 0.0287700016
H  0.8851301074 0.5557500124 1.1186500788
H  0.6917700768 -0.9016600847 0.1436700076
H  0.6732300520 0.6873000860 -0.6361900568
H  3.0772302151 -0.5950600505 0.7885100842
H  2.5560603142 -0.1626400203 -2.2106900215
H  2.4867701530 -1.7118701935 -1.3572301865
H  4.0250005722 -0.8615800738 -1.5069600344
H  3.2079601288 1.3000100851 2.1364302635
H  2.4602000713 2.7541503906 1.4235601425
H  4.6416807175 3.4964001179 0.4507500529
H  5.3439602852 2.5560302734 1.7984801531
H  5.2558703423 1.4920901060 -0.9137700796
H  5.1541004181 0.4214600325 0.5092600584
