15

N  1.1341900826 1.6018400192 -0.8944401145
C  2.2665100098 0.9787500501 -0.5192100406
N  2.4370100498 -0.2907300293 -0.4853400290
O  3.2180302143 1.8582201004 -0.1526600122
C  4.4928703308 1.2932000160 0.1857700199
C  5.4248404503 2.4305801392 0.4791900218
C  6.2196502686 2.5068502426 1.5546801090
H  1.0978201628 2.5665102005 -0.5868500471
H  0.2746300399 1.0946800709 -0.7390800714
H  1.5887901783 -0.7426300645 -0.8313700557
H  4.8831305504 0.7262600660 -0.6672101021
H  4.3864603043 0.6360200047 1.0575001240
H  5.4436602592 3.2354302406 -0.2519800067
H  6.2405104637 1.7233800888 2.3047301769
H  6.8740100861 3.3608701229 1.7013301849
