17

C  4.1848301888 -0.6381600499 2.4546902180
C  3.4622802734 -1.0644500256 1.2103500366
C  2.3509402275 -1.8108501434 1.2593400478
O  3.9517502785 -0.7119200230 -0.0431500003
C  5.0612001419 0.2037200183 -0.0603600033
C  6.4369201660 -0.4019000530 -0.1261500120
C  5.8367605209 0.2199400216 -1.3513600826
H  5.2158203125 -1.0052400827 2.4516701698
H  3.7050404549 -1.0350500345 3.3562703133
H  4.1922001839 0.4522500336 2.5482103825
H  1.9174901247 -2.1322500706 2.1982102394
H  1.8525900841 -2.1154401302 0.3457300365
H  4.9363403320 1.1710300446 0.4170100093
H  6.5185804367 -1.4821101427 -0.0931900069
H  7.2429203987 0.1233800128 0.3711800277
H  6.2341604233 1.1690300703 -1.6896901131
H  5.5092306137 -0.4374000430 -2.1483302116
