19

C  1.5145001411 -0.0205600020 1.3190300465
C  2.2635900974 0.2922000289 0.0306800026
C  2.9508001804 1.6484200954 0.0446900055
C  2.0337200165 2.8439502716 0.1153300107
O  1.1938400269 2.8565602303 -1.0288500786
C  4.2974805832 1.7141500711 -0.0210100021
C  5.1731700897 2.9268603325 -0.0423600040
H  1.1229801178 -1.0429201126 1.2859801054
H  0.6623000503 0.6518600583 1.4626700878
H  2.1707301140 0.0630400032 2.1920201778
H  1.5706300735 0.2422100157 -0.8168900609
H  2.9971902370 -0.5059300661 -0.1365400106
H  2.5616602898 3.7986502647 0.1482800096
H  1.4052101374 2.8019404411 1.0094300508
H  1.7783601284 2.7567400932 -1.7993701696
H  4.8573999405 0.7795900702 -0.0689100027
H  4.6254405975 3.8701603413 -0.0391600057
H  5.7975406647 2.9101903439 -0.9415200949
H  5.8348903656 2.9182503223 0.8296500444
