16

C  2.1155202389 -0.2481200099 1.4541201591
C  2.4462201595 0.1133600101 0.0181000009
C  2.9971301556 1.5240600109 -0.0620600022
C  2.0094602108 2.6675801277 0.0162900016
N  4.2897405624 1.6643801928 -0.1458100230
N  4.7485604286 2.9347200394 -0.1741000116
H  1.7358301878 -1.2726800442 1.5117900372
H  1.3541901112 0.4222300351 1.8660202026
H  3.0029304028 -0.1738800257 2.0914001465
H  1.5524702072 0.0433200039 -0.6104900241
H  3.1880502701 -0.5874900222 -0.3807800412
H  0.9861000776 2.2948701382 -0.0787200108
H  2.1904203892 3.3813502789 -0.7917100787
H  2.1112902164 3.1695601940 0.9823300838
H  5.7409100533 2.9255802631 -0.4242900312
H  4.7230505943 3.3464903831 0.7621300817
