10

N  0.9418801069 0.1517800242 0.0055700000
C  2.1026301384 0.1035000086 0.0019200002
C  3.5332903862 -0.0056700003 -0.0024600003
N  4.2959604263 1.0962799788 -0.0078600002
N  5.5521602631 0.6164500117 -0.0106800003
C  5.6110105515 -0.7476100326 -0.0072700004
C  4.3071503639 -1.1853901148 -0.0018600001
H  6.3220105171 1.2792401314 -0.0149400020
H  6.5563001633 -1.2723001242 -0.0089600002
H  3.9621403217 -2.2100801468 0.0019700001
