11

N  2.4127202034 -0.6714400649 1.2305901051
C  2.2917003632 -0.0443500020 0.0223099999
O  1.5018001795 -0.4644300342 -0.8180800676
C  3.1102201939 1.2197800875 -0.1621199995
C  4.5456299782 1.0150500536 0.0965300053
C  5.7190904617 0.8585100770 0.3008800149
H  3.1800701618 -0.4707800448 1.8579101562
H  1.9168201685 -1.5458301306 1.3446900845
H  2.7043902874 1.9861401320 0.5073100328
H  2.9673902988 1.5709601641 -1.1902101040
H  6.7629303932 0.7234100699 0.4706900120
