20

C  0.9557601213 -0.1300200075 -0.2581399977
C  2.4758501053 -0.1156500056 -0.2342100292
C  3.0170300007 1.2520600557 0.1887200028
C  4.5356302261 1.2803801298 0.2204200178
N  5.1965203285 1.2140400410 -1.0922300816
C  5.1990704536 2.1241803169 1.2840400934
C  5.2291107178 0.6274100542 1.3917901516
H  0.5908800364 -1.1186400652 -0.5533800721
H  0.5685600638 0.6026900411 -0.9730600715
H  0.5453900695 0.1023600027 0.7295400500
H  2.8528001308 -0.3824000359 -1.2284901142
H  2.8326301575 -0.8885200620 0.4569800496
H  2.6120500565 1.5074501038 1.1763300896
H  2.6593403816 2.0252900124 -0.5027700663
H  6.2105903625 1.1869500875 -0.9973200560
H  4.9887900352 2.0511500835 -1.6361202002
H  4.5740604401 2.6678502560 1.9841301441
H  6.1272406578 2.6325201988 1.0502700806
H  6.1704902649 0.1186000109 1.2195501328
H  4.6209506989 0.1612400115 2.1589801311
