15

C  0.9951200485 -0.0183000024 -0.0476100035
C  2.5186102390 0.0312400013 -0.0313300006
O  3.0261502266 -1.0983899832 -0.7644301057
N  3.3046202660 -0.6731500030 -2.0885701180
C  3.3177902699 0.6176100373 -2.0720801353
C  3.0868401527 1.2537801266 -0.7441300750
N  4.3838605881 1.7187701464 -0.2311600149
H  0.5704000592 0.8213400841 0.5103900433
H  0.6424100995 -0.9520201087 0.4029300213
H  0.6022600532 0.0048600002 -1.0692499876
H  2.8683903217 -0.0396700017 1.0048000813
H  3.5250103474 1.2312901020 -2.9598000050
H  2.3866801262 2.0892601013 -0.8157801032
H  5.0238804817 0.9204600453 -0.1969700158
H  4.2770204544 2.0195500851 0.7371600866
