19

C  1.7565200329 -1.7690701485 -0.7800500989
C  2.8404703140 -0.9342200756 -0.1109600067
C  2.7897400856 0.5322400331 -0.5377600193
O  1.5384901762 1.1012001038 -0.1378800124
C  3.9228100777 1.3440400362 0.1012600064
O  3.7988502979 2.7008702755 -0.3484000266
C  4.8151702881 3.5262303352 0.2070500255
H  1.8409301043 -2.8152902126 -0.4691200554
H  1.8496201038 -1.7305300236 -1.8700101376
H  0.7566800117 -1.4174201488 -0.5068300366
H  3.8206002712 -1.3601000309 -0.3567600250
H  2.7088901997 -1.0108901262 0.9751300812
H  2.8445303440 0.6175100803 -1.6294400692
H  1.6420301199 2.0626401901 -0.2831400335
H  4.8987903595 0.9444100857 -0.1952200234
H  3.8319902420 1.3285601139 1.1936300993
H  4.6695804596 4.5456399918 -0.1602100134
H  5.8039703369 3.1787102222 -0.1073900089
H  4.7475204468 3.5351302624 1.2992501259
