20

N  1.4231101274 2.2138702869 1.9863301516
C  2.8403201103 2.1615300179 1.6400901079
C  3.0074203014 1.8290901184 0.1583500206
C  4.4735999107 1.7077001333 -0.2634200156
C  5.2243304253 3.0017104149 -0.1392600089
C  6.2006607056 3.2150602341 0.9890900850
C  6.7047901154 3.0308101177 -0.4142700136
H  1.3258900642 2.4048900604 2.9824800491
H  0.9959300756 1.3026601076 1.8264001608
H  3.3375701904 1.4064902067 2.2582600117
H  3.2900204659 3.1326203346 1.8694701195
H  2.5137200356 2.5965700150 -0.4509200454
H  2.5071702003 0.8773900867 -0.0625900030
H  4.5046701431 1.3940100670 -1.3140301704
H  4.9611907005 0.9141300917 0.3161400259
H  4.6511602402 3.8516802788 -0.4946600497
H  6.3728604317 2.4109702110 1.6961101294
H  6.2627406120 4.2059602737 1.4250200987
H  7.1077208519 3.8975203037 -0.9278301001
H  7.2073607445 2.1013102531 -0.6577000022
