15

O  1.2159900665 0.1267600060 0.6553400159
C  2.3080701828 0.0666600019 0.0944300070
C  3.0436804295 -1.2410100698 -0.0421300046
C  4.0100402832 -1.2909201384 -1.2066601515
C  4.8886103630 -0.0583200045 -1.1808400154
C  4.0038003922 1.1668801308 -1.2761000395
O  2.9480502605 1.1893100739 -0.3013600111
H  2.3065702915 -2.0432102680 -0.1567000151
H  3.5805103779 -1.4075701237 0.8994900584
H  4.6230006218 -2.1968502998 -1.1473799944
H  3.4553501606 -1.3337200880 -2.1519901752
H  5.4584503174 -0.0346500017 -0.2442100048
H  5.6062703133 -0.0754600018 -2.0075399876
H  4.6052203178 2.0695800781 -1.1270200014
H  3.5409703255 1.2437300682 -2.2664501667
