12

O  2.3284201622 -0.7726100087 -0.9367100596
C  2.3393001556 0.0476800054 -0.0274900012
C  1.4820101261 -0.1178500131 1.1245801449
C  0.7686400414 -0.2604500353 2.0814702511
C  3.2885701656 1.1876401901 -0.0238200016
C  3.3117301464 2.1347002983 -1.1976801157
N  2.7086102962 2.5383603573 0.0655200034
H  0.1295900196 -0.3885600269 2.9239702225
H  4.2202901840 1.0180400610 0.5022200346
H  2.6284601688 1.9550302029 -2.0199100971
H  4.2499504089 2.6027903557 -1.4671001434
H  3.3294303417 3.1625502110 0.5840100646
