17

C  0.9754101038 0.0588100068 -0.1663900018
C  2.4697601795 -0.0454700030 0.0066100000
N  2.9279301167 -0.0185000021 1.4256701469
C  3.3125102520 -0.8300100565 -0.9923800826
N  2.7003700733 -1.5982902050 -2.0806102753
C  3.3322803974 0.6763800383 -1.0152200460
O  4.5038805008 1.3123900890 -0.4644300342
H  0.6805300117 0.1954300255 -1.2114801407
H  0.5862500668 0.9150900841 0.3964700401
H  0.4869100451 -0.8471601009 0.2086600214
H  3.8562002182 -0.4408000410 1.5000301600
H  2.3253700733 -0.6160200834 1.9942301512
H  4.2205700874 -1.2985501289 -0.6167500615
H  1.9711501598 -1.0731800795 -2.5608000755
H  2.2626903057 -2.4456701279 -1.7223801613
H  2.8463702202 1.1774401665 -1.8444901705
H  4.3245506287 1.5324301720 0.4701100290
