10

O  1.1738901138 -0.1036200076 0.4896200597
C  2.3261401653 -0.0638800040 0.1277800053
N  3.1803901196 -1.0958501101 -0.1712700129
C  4.4145803452 -0.6446501017 -0.5469500422
C  4.5199003220 0.6894600391 -0.5414299965
C  3.1974804401 1.1879400015 -0.1103900075
O  2.8744702339 2.3461000919 0.0249500014
H  2.8965003490 -2.0646700859 -0.1098900065
H  5.1922202110 -1.3495900631 -0.8123700619
H  5.3567004204 1.3163301945 -0.7871300578
