16

C  1.3005300760 -0.4474900365 -0.0636100024
C  2.8046801090 -0.2692700326 0.0748800039
C  3.2016103268 1.2062801123 -0.0074200006
C  4.7161102295 1.4296801090 0.0739700049
O  4.9759106636 2.8103802204 -0.2215800136
C  5.2595105171 1.0679100752 1.3985301256
N  5.6680507660 0.7979800701 2.4530401230
H  1.0370600224 -1.5078301430 0.0014700001
H  0.9473300576 -0.0684100091 -1.0278900862
H  0.7679100633 0.0843500122 0.7312901020
H  3.3074402809 -0.8339400291 -0.7188000679
H  3.1235802174 -0.6979000568 1.0314100981
H  2.6977102757 1.7727200985 0.7872700691
H  2.8324303627 1.6300201416 -0.9508501291
H  5.2181806564 0.8432300687 -0.7032700777
H  4.6632900238 3.3364102840 0.5366500616
