14

C  1.0303601027 0.0161700025 -0.1426700056
C  2.5127501488 0.0188699998 0.1300300062
N  3.1119501591 1.1673800945 0.2251500189
O  4.4839105606 1.0783600807 0.5731700063
C  5.1999406815 0.0505100042 -0.1219200045
C  4.5089101791 -1.2624599934 0.0490400046
C  3.1866402626 -1.2985501289 0.2407000214
H  0.6389800906 -1.0010501146 -0.2271600068
H  0.8333200812 0.5490800142 -1.0773800611
H  0.5134300590 0.5271000266 0.6749600768
H  6.1982002258 0.0007400001 0.3230500221
H  5.3058905602 0.3153300285 -1.1788201332
H  5.0984807014 -2.1712002754 0.0305100009
H  2.6143901348 -2.2051901817 0.3718100190
