17

C  0.6245999932 0.6488100886 1.0958600044
C  2.1077802181 0.8023700714 1.2103500366
C  2.8905100822 1.2466001511 0.2143600136
C  4.3769803047 1.4011001587 0.3032100201
N  4.6750402451 2.7980201244 0.0994900092
C  5.9123601913 3.2420403957 -0.2255500108
N  6.2925705910 4.4670305252 -0.1876800060
H  0.3443500400 -0.3975200355 1.2533200979
H  0.2501000166 0.9588800669 0.1147200093
H  0.1273900121 1.2572001219 1.8579200506
H  2.5449001789 0.5278500319 2.1671900749
H  2.4455602169 1.5091201067 -0.7437300682
H  4.8473606110 0.7845600843 -0.4702100158
H  4.7609305382 1.0772100687 1.2766700983
H  4.0580401421 3.4452702999 0.5735700130
H  6.6123204231 2.4534003735 -0.5498000383
H  5.5143203735 5.0587201118 0.1101200059
