14

C  0.8462500572 -0.0097700004 -0.2340000272
C  2.3232502937 -0.0294100028 0.0504100062
C  2.6914002895 -0.0070000007 1.5083601475
C  3.2274901867 -0.7693300247 -0.9115800858
N  3.1891202927 0.6892900467 -0.8921100497
H  0.6318300962 -0.0036000002 -1.3084900379
H  0.3844900131 0.8808800578 0.2049900144
H  0.3658300340 -0.8937400579 0.1980500072
H  3.7759304047 -0.0293500032 1.6619801521
H  2.2644300461 -0.8757901192 2.0200901031
H  2.3029501438 0.8983901143 1.9863102436
H  2.7900302410 -1.2404500246 -1.7836401463
H  4.1327004433 -1.2362501621 -0.5426200032
H  4.0115404129 1.0718700886 -0.4225500226
