17

O  2.8417000771 -0.5338200331 -1.2004500628
C  2.2375702858 0.0934100077 -0.0771700069
C  2.6917002201 1.5321500301 -0.0109400013
C  1.7994301319 2.5327100754 -0.1214000061
C  4.1460804939 1.7581601143 0.1245200038
C  4.6643905640 2.7114303112 1.1730000973
C  4.8730401993 1.2359200716 1.3374902010
H  2.5598301888 -1.4627801180 -1.1828399897
H  2.5297901630 -0.4448600113 0.8304200172
H  1.1506201029 0.0123900007 -0.1851900220
H  0.7387800217 2.3442499638 -0.2471100241
H  2.1191799641 3.5699903965 -0.1059500128
H  4.6807703972 1.7203601599 -0.8211100698
H  3.9645903111 3.1955101490 1.8438501358
H  5.5224604607 3.3214201927 0.9166001081
H  5.8729405403 0.8430900574 1.1900200844
H  4.3149104118 0.7354400158 2.1195502281
