17

O  1.0875101089 0.0480200052 0.3474300206
C  2.2883601189 0.0177600011 0.0814700052
C  3.0483100414 -1.2875401974 0.0077000004
C  3.9976601601 -1.2960400581 -1.1822501421
C  4.8919706345 -0.0587800071 -1.2018201351
C  4.0545301437 1.2177500725 -1.2170500755
C  3.1058900356 1.2854100466 -0.0283600017
H  2.3350601196 -2.1137602329 -0.0805600062
H  3.5991401672 -1.4102001190 0.9462900758
H  4.6167502403 -2.1996703148 -1.1526900530
H  3.4170603752 -1.3343901634 -2.1125202179
H  5.5491204262 -0.0614300072 -0.3237200081
H  5.5366401672 -0.0856000036 -2.0874600410
H  4.7137804031 2.0929300785 -1.2117800713
H  3.4762501717 1.2566401958 -2.1487503052
H  3.6608703136 1.4108301401 0.9072700739
H  2.4294102192 2.1391801834 -0.1419600099
