15

C  0.7122000456 1.1964701414 -0.2342800200
C  -0.7424800396 1.1775701046 0.2609500289
O  -1.4293801785 0.0019800002 -0.1859900206
C  -0.7436300516 -1.1807001829 0.2462400198
C  0.7110300660 -1.1957800388 -0.2486200184
N  1.4620300531 -0.0025000002 0.1873700172
H  0.7293400764 1.2522901297 -1.3291600943
H  1.2217200994 2.0888402462 0.1448500007
H  -1.2800301313 2.0457201004 -0.1335600019
H  -0.7881900668 1.2251100540 1.3548500538
H  -0.7895700336 -1.2411201000 1.3404600620
H  -1.2825300694 -2.0431900024 -0.1579000205
H  1.2185801268 -2.0923900604 0.1189400032
H  0.7274700403 -1.2373701334 -1.3442300558
H  1.5113401413 -0.0087000001 1.2065700293
