14

C  0.9393600821 0.0201600008 0.1626200229
C  2.4516301155 0.0545200035 -0.0385900028
O  2.6984701157 1.1834601164 -0.8962000608
N  3.9270102978 1.2052600384 -1.5941700935
C  4.3612904549 0.0474500060 -1.9830801487
C  3.7986104488 -1.2622001171 -1.6345800161
C  2.9147801399 -1.2424401045 -0.6368700862
H  0.5940700769 0.9494300485 0.6262800097
H  0.6272700429 -0.8202900887 0.7914700508
H  0.4216500223 -0.0560100041 -0.8017700911
H  2.9486300945 0.2245300263 0.9246800542
H  5.2625904083 0.0149600012 -2.6090700626
H  4.1799001694 -2.1593501568 -2.1001200676
H  2.5231802464 -2.1675601006 -0.2346400172
