15

C  0.9984600544 0.0436500050 0.1658700109
C  2.4885799885 -0.0612800047 -0.1185200065
N  2.7361302376 -1.1313000917 -1.1060500145
N  3.5025303364 -0.7214200497 -2.1617903709
C  3.6481604576 0.5605500340 -2.0363502502
C  3.0628602505 1.1293001175 -0.8151800632
C  3.0974502563 2.4239802361 -0.4874500334
H  0.7910900712 0.8528301120 0.8752200603
H  0.6184800267 -0.8871300817 0.6020500660
H  0.4222800136 0.2459200174 -0.7454500198
H  3.0520904064 -0.2681200206 0.7988700271
H  3.1113004684 -1.9765501022 -0.6743400693
H  4.1871705055 1.2026001215 -2.7478203773
H  2.6532101631 2.7788002491 0.4374900162
H  3.5721602440 3.1597003937 -1.1291000843
