15

O  0.9549300671 0.1188300103 -0.4859200418
C  2.0631101131 0.0713300034 0.3026700318
O  2.2353701591 -0.8662900925 1.0747401714
C  3.0171101093 1.2755300999 0.1037700102
C  2.4270403385 2.7073302269 0.2402300239
C  3.7628502846 3.1294901371 0.8781101108
C  3.9497804642 1.6571401358 1.2874301672
H  0.9340801239 0.9013500810 -1.0681501627
H  3.5863304138 1.1596499681 -0.8308600187
H  1.5697700977 2.7778701782 0.9200600386
H  2.1771900654 3.2078902721 -0.6991400123
H  4.5052003860 3.4834604263 0.1538700163
H  3.6930301189 3.8472003937 1.6988900900
H  4.9735207558 1.2788600922 1.2245601416
H  3.5436003208 1.4204400778 2.2779300213
