18

N  1.1941701174 0.3365300298 0.1768200099
C  2.5843303204 0.0378700048 -0.1459900141
C  2.6317801476 -0.6221100688 -1.4920800924
C  3.1413002014 -1.8399901390 -1.7242901325
C  3.3273003101 1.3458101749 -0.0943100080
C  4.0651602745 1.7614300251 1.1571800709
C  4.8365902901 1.3720901012 -0.0725700036
H  1.1574400663 0.7275700569 1.1158601046
H  0.6794000268 -0.5411900282 0.2177500278
H  2.9773802757 -0.6441200376 0.6187300086
H  2.2279300690 -0.0522900037 -2.3262400627
H  3.5590302944 -2.4458801746 -0.9265200496
H  3.1488304138 -2.2543401718 -2.7274901867
H  2.8389503956 2.1216602325 -0.6771300435
H  4.0903005600 1.0818001032 2.0015001297
H  4.0416102409 2.8098402023 1.4321401119
H  5.3322200775 2.1567201614 -0.6333200336
H  5.3697404861 0.4284000397 -0.0675900057
