13

C  1.1361901760 0.0828900039 0.0056500006
C  2.6027400494 0.1809000075 0.0003200000
C  3.5132102966 1.2047801018 -0.0001300000
C  3.3167004585 2.6643302441 0.0050300001
N  4.7675604820 0.6594200730 -0.0061900006
N  4.6663007736 -0.6658900976 -0.0095900008
O  3.3074903488 -0.9825600982 -0.0054800003
H  0.8042300344 -0.9598801136 -0.0036000002
H  0.7162000537 0.5795100331 -0.8744301200
H  0.7240000367 0.5614700317 0.8992900848
H  2.2544002533 2.9268403053 -0.0019100002
H  3.7834901810 3.1143302917 -0.8765200973
H  3.7700903416 3.1060402393 0.8976801038
