18

C  0.9538000226 0.0411600024 -0.0041500004
C  2.4672300816 0.0059500006 0.0187200010
C  3.1739404202 0.9648900628 1.0020500422
N  4.1706104279 -0.1046000049 1.2689901590
C  3.1310601234 -1.1070100069 0.8671900630
C  3.7265601158 -2.3025901318 0.1332100034
O  4.6255006790 -2.9902603626 1.0019201040
H  0.5584500432 -0.7971100807 -0.5869700313
H  0.5970800519 0.9685900807 -0.4637500346
H  0.5309800506 -0.0200200006 1.0045801401
H  2.8780701160 0.0778900012 -0.9986900687
H  2.5898401737 1.2404701710 1.8882201910
H  3.5880002975 1.8755000830 0.5592900515
H  4.9638104439 -0.0580900051 0.6259000301
H  2.5226602554 -1.4322700500 1.7234301567
H  4.2861804962 -1.9974200726 -0.7575200200
H  2.9435603619 -3.0010402203 -0.1765500158
H  5.0240902901 -2.3103902340 1.5786100626
