12

C  0.4066900015 1.4597901106 0.5244100690
C  0.8542800546 0.3666200042 -0.4040700197
O  0.9225700498 -1.0097000599 0.1146800071
C  -0.4107100368 -1.3777501583 0.2763500214
C  -1.2896201611 -0.4056700170 0.0241300017
C  -0.6056000590 0.8167200685 -0.3856700361
H  0.7176500559 2.4725003242 0.2961699963
H  0.3677500188 1.2455000877 1.5863100290
H  1.4662100077 0.6223900318 -1.2600001097
H  -0.5730700493 -2.3895502090 0.6015100479
H  -2.3630900383 -0.4973100424 0.1064700112
H  -0.9814900756 1.3511002064 -1.2474400997
