15

C  0.9869400263 -0.0635800064 0.0248800013
C  2.4793901443 0.0037700003 0.0864100009
C  3.1716701984 1.1407301426 -0.0710900053
C  4.6589002609 1.1713101864 0.0399800017
O  5.1530704498 -0.0319700018 0.6171900630
C  4.5109400749 -1.1603901386 0.0346600004
O  3.1039803028 -1.2112300396 0.2912900150
H  0.6573400497 -1.0399900675 -0.3451700211
H  0.5788800120 0.6968700290 -0.6486001015
H  0.5603800416 0.0864199996 1.0219200850
H  2.6617202759 2.0806801319 -0.2561300099
H  5.1162605286 1.3211601973 -0.9441300631
H  4.9689702988 1.9974801540 0.6870501041
H  4.9557299614 -2.0599801540 0.4710000455
H  4.6964302063 -1.1946700811 -1.0472400188
