17

C  1.1601501703 -0.1194100082 0.5460000634
N  2.6124601364 -0.0940900072 0.4338200092
C  3.0806002617 1.2183300257 -0.0248400010
C  4.6125106812 1.2354100943 -0.1267600060
C  5.1225800514 2.5703601837 -0.5953900814
C  5.8352904320 2.7526502609 -1.7143100500
H  0.8385600448 -1.1092801094 0.8837000728
H  0.6787600517 0.0809600055 -0.4164800346
H  0.8080200553 0.6099800467 1.2822901011
H  2.9102201462 -0.8087100983 -0.2303500175
H  2.7555801868 1.9941302538 0.6798000336
H  2.6449103355 1.4508301020 -1.0049200058
H  4.9477105141 0.4388000369 -0.8030300140
H  5.0519905090 1.0239601135 0.8562000394
H  4.9009704590 3.4291300774 0.0351400040
H  6.0912008286 1.9262300730 -2.3702902794
H  6.1841301918 3.7415404320 -1.9958602190
