13

N  0.9905300736 0.0009900001 -0.0723300055
C  2.3434002399 0.0282100011 -0.0427100025
C  3.0829501152 1.1862000227 -0.0830700025
S  4.7667202950 0.8724500537 0.0095900008
C  4.5028104782 -0.8202000260 0.0929700062
C  3.1651103497 -1.1328899860 0.0426000021
N  2.6897401810 -2.3996603489 0.0630500019
H  0.4640000165 0.8521800637 0.0995200053
H  0.5203800201 -0.8203500509 0.2958000302
H  2.7294502258 2.2042703629 -0.1533000171
H  5.3451004028 -1.4921001196 0.1654400080
H  1.7619401217 -2.5686001778 -0.3131700158
H  3.3190503120 -3.1779704094 -0.1080000028
