21

C  2.0935802460 -0.3134500086 -1.5088901520
C  2.4165000916 0.0762800053 -0.0740600079
C  3.1284003258 1.4252800941 0.0266900025
C  2.2891802788 2.6170001030 -0.4278400242
C  3.0329103470 3.8125603199 0.1517600119
C  3.6618101597 3.3152103424 1.4518901110
C  3.4729802608 1.7991501093 1.4683701992
H  1.6421401501 -1.3104001284 -1.5353701115
H  2.9992301464 -0.3351600468 -2.1230101585
H  1.3848201036 0.3858300447 -1.9622702599
H  3.0538101196 -0.7000300884 0.3666800261
H  1.4875701666 0.0910800025 0.5091400146
H  4.0551900864 1.3922301531 -0.5623300672
H  1.2764500380 2.5656602383 -0.0092600007
H  2.2050302029 2.6838102341 -1.5168601274
H  3.8221101761 4.1327404976 -0.5389000177
H  2.3699600697 4.6676402092 0.3142900169
H  4.7247805595 3.5791003704 1.4845200777
H  3.1849901676 3.7718503475 2.3258602619
H  4.3688206673 1.2809501886 1.8250101805
H  2.6498501301 1.5415400267 2.1463201046
