10

O  1.4397200346 -0.8379600644 -0.5400600433
C  2.3429801464 -0.1246900037 0.2946700156
C  2.0516500473 1.3669301271 0.3319100440
O  1.3111901283 1.9262101650 -0.4707300365
C  2.7290802002 2.1340901852 1.3542500734
C  3.2870302200 2.7739400864 2.2038102150
H  1.1436500549 -0.2113300115 -1.2302300930
H  3.3567502499 -0.2759800255 -0.0877700076
H  2.2701802254 -0.5405400395 1.3036301136
H  3.7741703987 3.3519804478 2.9555799961
