16

C  0.8759300709 0.1511200219 -0.0443700030
C  2.3776700497 0.0283400025 -0.0791300088
C  2.9203402996 -1.3761900663 -0.1579000205
N  2.5125203133 -2.0418601036 -1.3900600672
C  3.1390202045 1.1379899979 0.0000000000
C  4.5450205803 1.1379899979 0.0000000000
C  5.7351803780 1.1379899979 0.0000000000
H  0.5471600294 1.1806601286 0.1367500126
H  0.4626400173 -0.4687300324 0.7590300441
H  0.4369600415 -0.1700600088 -0.9945800900
H  2.5635600090 -1.9541901350 0.7032000422
H  4.0130705833 -1.3976501226 -0.1078500077
H  1.5203400850 -2.2638101578 -1.3402601480
H  2.9960203171 -2.9361102581 -1.4547301531
H  2.6616301537 2.1124801636 0.0632000044
H  6.8000807762 1.1364201307 -0.0054200008
