14

C  1.1338901520 -0.9188700914 -0.1797700226
C  2.2686402798 0.0534000061 0.0770800039
N  1.7746801376 1.4043800831 0.2128400207
C  1.8699202538 2.3447899818 -0.7855000496
O  2.4166102409 2.2094700336 -1.8683601618
C  1.2192301750 3.6719603539 -0.4434500337
O  0.5334300399 3.7939004898 0.5628300309
H  1.5176401138 -1.9387401342 -0.2778100371
H  0.5942100286 -0.6630000472 -1.0987100601
H  0.4118000567 -0.9027200341 0.6447000504
H  2.9962801933 0.0045400001 -0.7382500768
H  2.7788302898 -0.2005700022 1.0102000237
H  1.2472501993 1.6723501682 1.0416500568
H  1.4286800623 4.4814305305 -1.1599601507
