12

C  0.9907700419 -0.0285200030 -0.0052600005
C  2.5073900223 0.0236600004 0.0102000013
C  3.0236401558 1.4552201033 0.0161600020
O  4.4449605942 1.4560500383 0.0123700006
H  0.6466300488 -1.0676201582 -0.0091300011
H  0.5896300673 0.4650400281 -0.8968800902
H  0.5717100501 0.4646300375 0.8780100346
H  2.9077200890 -0.5068500638 -0.8612800241
H  2.8879802227 -0.5091300011 0.8888800144
H  2.6784200668 2.0010702610 0.9009900689
H  2.6842002869 1.9966201782 -0.8735800385
H  4.7396402359 0.9889200926 0.8129700422
