21

C  2.9954802990 -0.8505000472 -1.0695700645
C  2.5247201920 -0.0038200004 0.1047800034
C  3.1040403843 1.4231801033 0.1048200056
C  2.4952101707 2.2196903229 1.2638400793
C  4.6101002693 1.4114700556 0.2248400152
C  5.4706501961 1.5413100719 -1.0074800253
C  5.4076304436 2.6683802605 -0.0197400022
H  2.4833202362 -1.8188601732 -1.0624001026
H  4.0709600449 -1.0474400520 -1.0156800747
H  2.7786402702 -0.3591100276 -2.0234000683
H  2.7856001854 -0.5183500051 1.0374200344
H  1.4299601316 0.0525800027 0.0686800033
H  2.8113002777 1.9183801413 -0.8304800987
H  2.7678203583 1.7838101387 2.2313301563
H  1.4027001858 2.2409901619 1.1931101084
H  2.8501901627 3.2557303905 1.2568501234
H  4.9580302238 0.7604900599 1.0207600594
H  4.9906301498 1.6870601177 -1.9695301056
H  6.3807005882 0.9545400739 -1.0539001226
H  6.2752404213 2.8446803093 0.6065000296
H  4.8850202560 3.5716302395 -0.3125000000
