19

C  0.9186900854 -0.1246000081 0.1916000098
C  2.4231801033 0.0246700011 -0.0274400022
C  2.8293101788 -0.0249300022 -1.5168300867
N  2.3559904099 1.1462001801 -2.2574200630
C  3.0926101208 1.1266500950 0.8377100825
C  4.1323304176 0.0571900047 1.1942200661
N  3.1613502502 -0.9805800915 0.7958500385
H  0.6672300696 -0.1915500164 1.2568001747
H  0.5354700089 -1.0281400681 -0.2963000238
H  0.3738500476 0.7346700430 -0.2141900212
H  2.4331803322 -0.9328000546 -1.9874202013
H  3.9200403690 -0.0642500073 -1.6186300516
H  1.3369400501 1.1357901096 -2.2955200672
H  2.6695201397 1.0772701502 -3.2255902290
H  2.4989302158 1.4633101225 1.6962500811
H  3.4802002907 2.0043401718 0.3136300147
H  5.0340204239 0.0816600099 0.5716601014
H  4.4317803383 0.0232000016 2.2455103397
H  3.5638103485 -1.7619100809 0.2820200324
