19

C  1.2664301395 -0.2412700206 0.3651700318
N  2.6904003620 0.0642600060 0.4210700393
C  2.9731400013 1.5002400875 0.2333000153
C  2.4478201866 2.3861100674 1.4059602022
N  2.6978902817 3.8233404160 1.2220801115
C  4.4779605865 1.6223301888 0.1109600067
C  5.1191701889 2.1330201626 -0.9499100447
H  1.1328001022 -1.3275301456 0.3787700236
H  0.8038600683 0.1392500103 -0.5505700111
H  0.7327300906 0.1532400101 1.2338600159
H  3.1509802341 -0.4385500252 -0.3390600383
H  2.5052001476 1.8380501270 -0.7018300891
H  2.9073302746 2.0667500496 2.3494601250
H  1.3657300472 2.2632400990 1.5143800974
H  3.6993901730 3.9680101871 1.0917100906
H  2.4498202801 4.3127403259 2.0802202225
H  5.0617804527 1.2619701624 0.9556400180
H  4.5795702934 2.5080900192 -1.8132702112
H  6.2020902634 2.1874902248 -0.9698300958
