18

C  0.9982000589 0.0148700010 -0.0108200014
C  2.5184800625 -0.0080200005 0.0353800021
C  3.1048002243 1.0894701481 0.9090600610
N  4.4768304825 0.6276000738 1.1520800591
C  4.3418703079 -0.8179600239 1.4106801748
C  3.0840702057 -1.2822400331 0.6608300805
O  3.3851304054 -2.2350201607 -0.3513500094
H  0.6186700463 -0.8068100810 -0.6267300844
H  0.6398400664 0.9557700753 -0.4410900474
H  0.5647400022 -0.0845000073 0.9899100661
H  2.8904500008 0.1026200056 -0.9929300547
H  2.5697202682 1.1899501085 1.8609701395
H  3.0973603725 2.0631701946 0.4092200100
H  5.0196805000 0.7562100887 0.2975500226
H  5.2458500862 -1.3544400930 1.1038900614
H  4.2095303535 -0.9672001004 2.4887301922
H  2.3791601658 -1.7432100773 1.3615001440
H  4.0643901825 -1.8509300947 -0.9316800237
