17

C  1.0647600889 0.1033300087 -0.1154100075
C  2.5538902283 0.0732800066 -0.0500600003
C  3.3432703018 -0.6286600232 -1.1224600077
C  3.4503602982 0.8728001118 -0.9828200340
C  2.8587603569 1.7130300999 -2.0889301300
N  4.6912403107 1.4170801640 -0.4091700315
H  0.6788400412 0.9030600786 0.5229400396
H  0.6598600745 -0.8451400399 0.2508600056
H  0.6799800396 0.2570300102 -1.1260801554
H  2.8831801414 -0.0706400052 0.9742500782
H  2.8128302097 -1.0325900316 -1.9775100946
H  4.1883702278 -1.2367399931 -0.8197600245
H  2.0376901627 1.2108701468 -2.6099002361
H  3.6230204105 1.9412200451 -2.8396902084
H  2.4812302589 2.6581501961 -1.6866902113
H  5.0490403175 0.8201301098 0.3337100148
H  4.5131006241 2.3233304024 0.0221700016
