13

C  1.0060400963 -0.0777900070 0.0063300007
N  2.4591903687 -0.0482400022 -0.0054500005
C  3.0252301693 1.0933901072 -0.0054500005
C  2.4751803875 2.4626600742 0.0053900001
C  3.5004901886 3.3146302700 -0.0004100000
C  4.6620602608 2.4415900707 -0.0142200002
N  4.3923006058 1.1820001602 -0.0168200005
H  0.6695400476 -1.1193100214 -0.0002800000
H  0.5859200358 0.4066300094 -0.8815600872
H  0.6013400555 0.3906300366 0.9097800851
H  1.4268400669 2.6957101822 0.0158000011
H  3.5052902699 4.3882203102 0.0039100004
H  5.6721506119 2.8740401268 -0.0214200020
