11

C  1.0781201124 -0.1588900089 -0.3908500373
C  2.3845801353 0.0129300011 -0.1498600096
C  3.0572903156 1.2739900351 -0.1004200131
N  2.4927301407 2.4720501900 -0.2855600119
O  3.5268502235 3.3922002316 -0.1447200030
N  4.7351202965 2.7541301250 0.1288900077
C  4.4259505272 1.4595000744 0.1516900212
H  0.6400300264 -1.1517000198 -0.4121200442
H  0.4146600366 0.6831300259 -0.5723900795
H  2.9876902103 -0.8761600852 0.0230400022
H  5.1990203857 0.7321400642 0.3470700383
