15

C  0.9846200347 -0.1013700068 0.1353600174
C  2.4498803616 0.2172300220 -0.0930600092
N  2.8404703140 1.4184300900 0.6992000341
C  3.8800101280 1.0336401463 1.3773201704
N  4.3337101936 -0.2642900348 1.3366400003
C  3.4258203506 -1.3104301691 1.8129601479
C  3.3806302547 -0.8714300394 0.3830300272
H  0.6997600794 -1.0188601017 -0.3898600042
H  0.3526700437 0.7152300477 -0.2289700210
H  0.7580200434 -0.2392500192 1.1980500221
H  2.6297802925 0.4239600301 -1.1542201042
H  4.4707002640 1.7045401335 2.0201802254
H  3.9363303185 -2.2325401306 2.0545201302
H  2.6821804047 -0.9700201154 2.5210001469
H  3.8574202061 -1.4504200220 -0.3934100270
