17

C  3.7801601887 -3.0171201229 2.0984101295
C  2.3270399570 -2.5822401047 2.1640901566
C  1.7861400843 -2.2071800232 0.7900400758
O  0.4155300260 -1.8198701143 0.9391700625
N  -0.0510600023 -1.5000500679 -0.3408600390
C  -1.1328201294 -2.2461700439 -0.7192701101
N  -1.5120401382 -3.3709902763 -0.2218100131
H  4.1448001862 -3.2752103806 3.0973303318
H  4.4116306305 -2.2156801224 1.7024301291
H  3.8971402645 -3.8958702087 1.4564601183
H  2.2236499786 -1.7290101051 2.8454902172
H  1.7165000439 -3.3862202168 2.5930202007
H  1.8542101383 -3.0657100677 0.1109000072
H  2.3592801094 -1.3704000711 0.3729400337
H  -0.1319100112 -0.4986300468 -0.5024800301
H  -1.6894000769 -1.7954201698 -1.5582901239
H  -0.8571801186 -3.5811002254 0.5419400334
