15

N  2.8377802372 -0.5505300164 1.2637401819
C  2.3858501911 0.0852300078 0.0295900013
C  2.8297202587 1.5325500965 -0.0559000038
C  1.9338701963 2.5321102142 -0.0914500058
N  4.1693005562 1.8546900749 -0.1126500070
C  5.2450003624 1.0089501143 -0.1073100045
O  6.3995203972 1.4179401398 -0.1673300117
H  2.4413802624 -1.4871701002 1.3208501339
H  2.4584603310 -0.0344400033 2.0570900440
H  1.2926001549 0.0120000010 -0.0192300007
H  2.7730801105 -0.4692800343 -0.8327800632
H  0.8663300872 2.3370101452 -0.0537500046
H  2.2320802212 3.5737602711 -0.1574800164
H  4.4363002777 2.8305902481 -0.1563200057
H  5.0078206062 -0.0633100048 -0.0664700046
