15

C  1.0409801006 0.0219300017 0.6407600641
C  2.4068701267 -0.0214500017 0.0479200035
C  2.6902704239 0.7068800330 -1.2392200232
O  4.0736403465 1.1361700296 -1.5082701445
C  4.7549600601 -0.0517200045 -1.7604001760
C  4.0251703262 -1.1567001343 -1.5972901583
C  2.6588602066 -0.8231000900 -1.2053201199
H  0.9093800783 0.9435300827 1.2161201239
H  0.8975700736 -0.8260100484 1.3176101446
H  0.2582800388 -0.0169500019 -0.1240100116
H  3.1713802814 -0.0053900001 0.8167400956
H  1.8883601427 1.2291001081 -1.7463600636
H  5.7882905006 0.0601400062 -2.0367701054
H  4.3828907013 -2.1669900417 -1.7344000340
H  1.8468902111 -1.3217800856 -1.7169600725
