15

C  1.0706200600 -0.0143900011 0.0650400072
N  2.5274701118 0.0078700008 -0.0120200012
C  3.0870003700 1.0231500864 0.9165900350
C  4.1744103432 -0.0069600008 1.2788699865
C  3.1201901436 -1.0607601404 0.8574000597
C  3.6280102730 -2.1910903454 0.0996200070
N  4.0339102745 -3.1132702827 -0.4766200185
H  0.6811400056 -0.8781600595 -0.4843300581
H  0.6598000526 0.8837300539 -0.4085200131
H  0.6832400560 -0.0628100038 1.0897001028
H  2.4488902092 1.3031401634 1.7646001577
H  3.4509701729 1.9341001511 0.4328000247
H  5.0665802956 0.0484000035 0.6425200105
H  4.4828405380 -0.0252100024 2.3274402618
H  2.4876801968 -1.3704000711 1.7014601231
