12

O  2.1658101082 -0.8992000818 -0.4056000412
C  1.8125700951 0.2686500251 -0.3067200184
C  2.7680602074 1.3193800449 0.0895200074
C  3.6871502399 1.9155501127 -0.9140200615
N  2.5680000782 2.6570301056 -0.4063400328
C  2.7695000172 3.7385902405 0.4367300272
O  3.5978701115 3.8215203285 1.3335801363
H  0.7736900449 0.5850200653 -0.4957100451
H  3.1271202564 1.2479300499 1.1112300158
H  3.5925402641 1.6440401077 -1.9564000368
H  4.6632404327 2.2553200722 -0.5906700492
H  2.0628602505 4.5522503853 0.2039400190
