14

N  1.0000001192 0.0000000000 0.0000000000
C  2.1510102749 0.0000000000 0.0000000000
C  3.5950102806 0.0000000000 0.0000000000
C  4.1686701775 1.1389701366 0.8286001086
C  5.5449204445 0.6203200221 1.1584000587
C  5.2851901054 -0.8565800190 1.3695001602
O  4.1584100723 -1.2087401152 0.5547900200
H  3.9679903984 0.0701400116 -1.0291200876
H  3.6000602245 1.2823600769 1.7570900917
H  4.1808905602 2.0928502083 0.2924900055
H  6.2112603188 0.7658700943 0.2986900210
H  6.0007205009 1.1030801535 2.0269801617
H  6.1451907158 -1.4711301327 1.0915100574
H  5.0257101059 -1.0685501099 2.4108800888
