13

N  1.0275801420 0.0401200019 0.2545500100
C  2.3913402557 -0.0080000004 0.0885200053
C  3.1474902630 -1.1044000387 -0.0492000058
C  4.5359907150 -0.6559400558 -0.2033500224
O  5.5006904602 -1.3800700903 -0.3493700027
N  4.5315904617 0.7126200795 -0.1589600146
C  3.2247900963 1.2477800846 0.0432099998
H  0.5447900891 -0.8160800338 -0.0109800007
H  0.5849200487 0.8745501041 -0.1241100058
H  2.8575501442 -2.1383502483 -0.0515000075
H  5.3886704445 1.2430701256 -0.2257600129
H  2.9638202190 1.8954100609 -0.7979000807
H  3.1994202137 1.8013200760 0.9855501056
