9

N  0.9371500611 -0.0438600034 -0.0057300003
C  2.0980801582 -0.0233600009 -0.0020800000
C  3.5299704075 0.0495400019 0.0022700001
C  4.2517504692 1.2249901295 0.0007500001
S  5.9316005707 0.8691100478 0.0072900006
C  5.5573601723 -0.8065800667 0.0115500009
N  4.2788004875 -1.1157900095 0.0084600011
H  3.8902003765 2.2439403534 -0.0037300002
H  6.3353900909 -1.5597500801 0.0165000018
