12

O  0.9870001078 -0.0355100036 0.0966300070
C  2.3465602398 0.0296900012 0.0085900007
C  3.0149602890 1.2437400818 -0.0337200053
C  4.3962006569 1.2077599764 -0.1233500093
N  5.1193304062 0.0664000064 -0.1712600142
C  4.4272003174 -1.0938000679 -0.1273300052
C  3.0486900806 -1.1638200283 -0.0379500054
H  0.6290200353 0.8678600788 0.1201000139
H  2.4972302914 2.1934001446 0.0007200001
H  4.9794807434 2.1231000423 -0.1603900045
H  5.0311608315 -1.9955800772 -0.1673000008
H  2.5373501778 -2.1180601120 -0.0055800001
