17

C  4.2498207092 -1.2064601183 0.6959400177
C  3.2000000477 -0.1697000116 0.3267700076
N  3.7999002934 1.1314700842 0.0529100075
O  4.2068004608 1.8128000498 1.2133400440
C  3.2794404030 2.8813202381 1.4137401581
C  4.6202802658 1.3446000814 -1.0246800184
N  5.5362305641 2.2443401814 -1.1400800943
H  3.7716603279 -2.1637601852 0.9254700541
H  4.8266506195 -0.8935700655 1.5716001987
H  4.9521403313 -1.3693701029 -0.1281700134
H  2.4750301838 -0.0757300109 1.1439501047
H  2.6408901215 -0.5065300465 -0.5537800789
H  3.6075601578 3.4569802284 2.2830102444
H  2.2781600952 2.4874601364 1.6136201620
H  3.2583303452 3.5481503010 0.5445300341
H  4.4288501740 0.6520200372 -1.8621600866
H  5.5531105995 2.7470400333 -0.2450900227
