13

N  0.8821800947 -0.1112500131 0.0059600007
C  2.1779401302 -0.0865400136 -0.0085100010
C  2.9786400795 1.2348301411 -0.0401500016
O  4.4066700935 1.1861300468 -0.0025800001
C  4.9663305283 -0.0688600019 0.0057200002
C  4.2763104439 -1.2145700455 0.0050300001
N  2.9135701656 -1.2342801094 -0.0024200000
H  0.5084200501 0.8441600204 -0.0032800003
H  2.6462800503 1.8429001570 0.8095901012
H  2.6906702518 1.7692301273 -0.9531300664
H  6.0465102196 -0.0143300015 0.0177000016
H  4.7594304085 -2.1851103306 0.0149400020
H  2.4180400372 -2.1160900593 0.0196600016
