13

C  1.0154000521 0.0194899999 0.0175300017
C  2.5104303360 -0.0049200007 0.0723300055
C  3.2706301212 1.1017401218 0.0167800002
C  4.6897206306 0.7199100852 0.0168800019
N  5.7165508270 1.4871300459 -0.0145900007
S  4.8072805405 -1.0314000845 0.0397100039
N  3.1529603004 -1.2251302004 0.1883500069
H  0.6264600754 1.0421600342 -0.0288500022
H  0.5934000611 -0.4595800340 0.9070700407
H  0.6582600474 -0.5169900656 -0.8674500585
H  2.9347102642 2.1200301647 -0.0620100051
H  5.4255304337 2.4673802853 -0.0269900020
H  2.6862902641 -2.0179402828 -0.2472400218
