14

C  1.0127600431 -0.3741800189 -0.0277200006
C  2.4588201046 0.0852300078 0.0257100016
C  2.5727400780 1.5797500610 0.2103200108
O  1.6307400465 2.3564403057 0.3103700280
C  3.9579002857 2.1598103046 0.2759700418
N  5.0006403923 1.4002400637 0.1871500164
O  6.1467604637 2.1979601383 0.2783000171
H  0.9615600705 -1.4596701860 -0.1603900045
H  0.4805000424 0.0977300107 -0.8605400920
H  0.4837300479 -0.1170800105 0.8961300850
H  2.9601602554 -0.1906000227 -0.9085800648
H  2.9644701481 -0.4097600281 0.8619200587
H  4.0016002655 3.2552504539 0.4026900232
H  6.8699002266 1.5461701155 0.2034100145
