21

C  2.7948000431 -1.3311800957 0.0289800018
C  2.2928602695 -0.1670400053 0.8714500666
C  2.9016902447 1.1916000843 0.4716300368
C  2.2252602577 2.3153901100 1.2654500008
C  4.4392004013 1.2667400837 0.5982500315
C  4.9773402214 1.0298501253 1.9828001261
C  5.6487803459 1.9452501535 2.6939902306
H  2.2574403286 -2.2465400696 0.2973800302
H  3.8606102467 -1.5158001184 0.1892600060
H  2.6301500797 -1.1434401274 -1.0366300344
H  2.4803102016 -0.3791600466 1.9304602146
H  1.2024500370 -0.1137300059 0.7579700947
H  2.6626300812 1.3613901138 -0.5874200463
H  2.3648800850 2.1915600300 2.3443202972
H  1.1476200819 2.3309803009 1.0686700344
H  2.6276502609 3.2925803661 0.9777900577
H  4.7703204155 2.2481100559 0.2326800078
H  4.9006304741 0.5348600745 -0.0753200054
H  4.8223605156 0.0434600040 2.4142501354
H  5.8405704498 2.9412400723 2.3071503639
H  6.0220904350 1.7124902010 3.6863603592
