17

C  1.4854900837 -0.1510400027 -0.4373000264
C  2.8483200073 0.0691000074 0.1349800229
C  3.6269903183 -1.1212300062 0.6493400335
C  4.0569105148 -0.3950700164 -0.5970600843
C  5.0509200096 0.7125400305 -0.5458800793
O  4.3518004417 1.8719500303 -0.0639500022
C  3.1717402935 1.4424400330 0.6400800347
H  1.1924600601 0.6814100146 -1.0882300138
H  0.7470200062 -0.2312100232 0.3689200282
H  1.4350601435 -1.0709900856 -1.0327401161
H  3.1991302967 -2.1111302376 0.5350200534
H  4.2190704346 -1.0035600662 1.5503901243
H  3.9599401951 -0.8681100607 -1.5624501705
H  5.8759903908 0.4875300527 0.1378800124
H  5.4611706734 0.9423000216 -1.5331400633
H  3.3870000839 1.4380600452 1.7141801119
H  2.3780601025 2.1699101925 0.4466200471
