17

C  0.8750400543 0.5447000265 0.0210900027
C  2.3238201141 0.3428900242 -0.2835000157
C  3.3024404049 1.1287600994 0.1925700158
C  4.7311105728 0.9801900387 -0.0821800083
C  5.2805204391 -0.2492500097 -0.1282100081
C  5.6492505074 2.1183903217 -0.1121000126
C  5.3146104813 3.3589003086 -0.4896100461
H  0.3173700273 0.7008800507 -0.9072800279
H  0.7037600279 1.4082201719 0.6714600325
H  0.4726800323 -0.3426800072 0.5191800594
H  2.5585503578 -0.4901500344 -0.9414801002
H  3.0426204205 1.9774601460 0.8240300417
H  4.6862802505 -1.1513600349 -0.0250900034
H  6.3466305733 -0.3975500464 -0.2692900300
H  6.6801805496 1.9297101498 0.1841000021
H  4.3120503426 3.6132304668 -0.8180700541
H  6.0553603172 4.1525602341 -0.4916900396
