13

C  1.0596200228 -0.0056200004 0.1335900128
N  2.5115301609 0.0338900052 -0.0148000009
C  3.0939102173 1.0819101334 0.8471300602
C  4.0115103722 -0.0174800009 1.4024200439
O  4.9853205681 -0.0395200029 2.1280102730
C  3.1397001743 -1.0821601152 0.7201600671
H  0.6512500644 -0.8644300699 -0.4101800323
H  0.6141600609 0.8950500488 -0.3027600348
H  0.7310100794 -0.0762000084 1.1775001287
H  2.4428601265 1.5189100504 1.6111201048
H  3.6186602116 1.8720600605 0.3051200211
H  3.6958904266 -1.7807601690 0.0907000080
H  2.5094902515 -1.6328001022 1.4261600971
