13

C  1.0410300493 -0.0506600030 0.2075100243
C  2.3628702164 -0.0036900004 0.0275300015
C  3.2758603096 1.1737601757 0.0058000004
O  4.5926103592 0.7141000628 -0.3962800205
N  4.4687204361 -0.6539700627 -0.7057000995
C  3.2666802406 -1.1235700846 -0.2742699981
N  3.0165801048 -2.3742702007 -0.0969400033
H  0.4839300513 -0.9800600410 0.1521200091
H  0.4719500244 0.8549600840 0.3936000466
H  3.3722901344 1.6200301647 1.0002200603
H  2.9469001293 1.9330601692 -0.7102800608
H  5.2688002586 -1.2387601137 -0.4835900068
H  2.0707499981 -2.5027101040 0.2694300115
