14

O  1.0198500156 0.0550200045 -0.0552600026
C  2.4336302280 -0.0015200000 -0.0391900055
C  2.9409501553 -1.2791301012 0.6327900887
C  3.2612102032 -0.8956100941 2.0800900459
C  3.4015202522 0.5886400342 2.0151901245
C  2.9341101646 1.0741400719 0.8601400852
H  0.7078400254 -0.7177200913 -0.5534000397
H  2.8143303394 0.1006200090 -1.0600800514
H  3.8659503460 -1.6096001863 0.1412800103
H  2.2240402699 -2.1052501202 0.5880600214
H  4.1826300621 -1.3775601387 2.4212203026
H  2.4460301399 -1.1698901653 2.7575902939
H  3.7776904106 1.1925901175 2.8289403915
H  2.8808200359 2.1236402988 0.6094200611
