17

C  0.7224200368 0.1874200106 -0.0499400012
C  2.2496800423 0.0575800054 -0.0472000018
O  2.6054103374 -0.7741300464 1.0551601648
C  2.7118604183 -0.5867600441 -1.3353700638
C  3.3923101425 -1.7358601093 -1.4584500790
C  2.8883001804 1.4217400551 0.1104500070
C  3.8012003899 1.7903802395 1.0225200653
H  0.3602200449 0.7938900590 -0.8880900741
H  0.3649400175 0.6453800797 0.8805900812
H  0.2460200191 -0.7988400459 -0.1089000106
H  2.2983503342 -0.3185099959 1.8554100990
H  2.4595999718 -0.0511700027 -2.2490901947
H  3.6787002087 -2.3181700706 -0.5871500373
H  3.6810102463 -2.1147000790 -2.4338102341
H  2.5732102394 2.1715900898 -0.6142700911
H  4.1942701340 1.0944601297 1.7572301626
H  4.2001805305 2.8000800610 1.0310500860
