15

N  2.3995702267 -0.3375300169 1.4263701439
C  2.5265603065 0.0732000098 0.0272000022
C  3.0129404068 1.4948800802 -0.0633200034
N  4.0129404068 1.8511601686 -0.8063400388
O  4.1599402428 3.2509801388 -0.6457300782
C  2.9332501888 3.7485001087 -0.1033300087
C  2.3624203205 2.6010601521 0.6835900545
H  2.2318701744 -1.3431000710 1.4601601362
H  1.5784701109 0.0960500091 1.8451701403
H  1.5591101646 -0.0039200000 -0.4783800542
H  3.2387802601 -0.5815900564 -0.4850100577
H  2.2806501389 4.0391402245 -0.9341500401
H  3.1286602020 4.6263103485 0.5187900066
H  1.2726300955 2.5587301254 0.6522100568
H  2.7175199986 2.5937302113 1.7177702188
