17

N  0.9009500742 0.1196000129 0.2530600131
C  2.3361802101 0.0409400053 -0.0320900008
C  3.1077101231 0.9914100766 0.9182900786
N  4.0185999870 -0.1250700057 1.2737700939
C  3.0074102879 -1.0910500288 0.7827500105
C  2.6176702976 0.1541800052 -1.4809401035
C  2.3719601631 -0.8521900773 -2.3294000626
H  0.6693500280 0.0083000008 1.2391901016
H  0.3531600237 -0.5774200559 -0.2469800264
H  2.5482301712 1.3686100245 1.7842401266
H  3.6118202209 1.8461202383 0.4536500275
H  4.8683104515 -0.1289100051 0.7077800632
H  3.4323000908 -1.9244900942 0.2132600248
H  2.4053001404 -1.5201001167 1.5939800739
H  3.0180101395 1.0930401087 -1.8535701036
H  1.9611401558 -1.8009301424 -1.9988601208
H  2.5754802227 -0.7399700880 -3.3902704716
