11

N  1.0168900490 -0.0240300018 0.0003500000
N  2.3506002426 -0.0055000004 -0.0000000000
C  2.8815500736 1.1673500538 -0.0000100000
C  4.3140301704 1.1216900349 -0.0000400000
C  5.5143504143 1.1006400585 -0.0000200000
C  7.0470204353 1.0823900700 -0.0000000000
C  8.2455101013 1.0708100796 0.0000100000
H  0.5521200299 -0.9260000587 -0.0001300000
H  0.4435600340 0.8111700416 -0.0001700000
H  2.3571202755 2.1358702183 0.0000600000
H  9.3111810684 1.0586299896 0.0000000000
