16

C  0.9966101050 0.2042000145 -0.3245400488
C  2.4596502781 0.0560000055 0.0028800003
C  3.0012402534 -1.1660400629 0.1451800019
C  3.2407002449 1.3044900894 0.0816000104
C  2.8490602970 2.3660502434 1.0778901577
C  4.1016802788 1.5698601007 1.2913401127
H  0.8681700826 0.8141400814 -1.2249500751
H  0.4648600221 0.6882900596 0.5014500618
H  0.5141100287 -0.7619400620 -0.5089600682
H  2.4069402218 -2.0696101189 0.0595400035
H  4.0603604317 -1.2880201340 0.3514000177
H  3.6218104362 1.6464201212 -0.8775700331
H  2.0212101936 2.1837201118 1.7528800964
H  2.9508101940 3.4021704197 0.7763301134
H  5.0528106689 2.0649802685 1.1338300705
H  4.1076002121 0.8534700871 2.1046202183
