19

C  1.0639500618 -0.0745500028 -0.0044500004
C  2.5546803474 -0.0503900051 -0.0240800008
C  3.3646302223 -0.7039900422 -1.1152601242
N  2.7216801643 -1.4035201073 -2.2234599590
C  3.2837800980 0.8022500873 -1.0360500813
C  4.4722304344 1.6040101051 -0.6152300835
N  5.2251605988 1.9580100775 -1.8075501919
H  0.6879500747 0.7001200318 0.6714200377
H  0.7078000307 -1.0433601141 0.3592500091
H  0.6261200905 0.1038600057 -0.9916300774
H  2.9559702873 -0.1104500070 0.9826200604
H  4.2974500656 -1.1669601202 -0.7975000739
H  1.9982200861 -0.8318500519 -2.6574800014
H  2.2569901943 -2.2492902279 -1.8955200911
H  2.6835701466 1.3341801167 -1.7669900656
H  5.1115207672 1.0455601215 0.0773800015
H  4.1414504051 2.5157301426 -0.1077500060
H  5.4911904335 1.1037400961 -2.2976503372
H  6.0937004089 2.4134302139 -1.5346601009
