16

C  0.7961200476 0.0178400017 0.0188400000
N  2.2407901287 0.0411700048 0.1870400161
C  3.0130901337 -0.8191100359 -0.6964900494
C  2.5587902069 -1.4069100618 -1.9871801138
O  2.5306203365 -0.3475900292 -2.9616401196
C  2.5614302158 0.9170900583 -2.2751402855
C  3.0129103661 0.6610100269 -0.8790701032
H  0.3717600405 0.9452400804 0.4179100394
H  0.3775100410 -0.8082400560 0.6034800410
H  0.4313000143 -0.0915300027 -1.0063700676
H  3.8949303627 -1.2906000614 -0.2842700183
H  3.2533302307 -2.1731100082 -2.3441200256
H  1.5633100271 -1.8567301035 -1.9217301607
H  3.2595703602 1.5706300735 -2.8069601059
H  1.5681301355 1.3733900785 -2.3232202530
H  3.8948202133 1.2187401056 -0.5938900113
