13

C  0.7030400634 -1.1932702065 0.5345200300
O  -0.4513000250 -1.4393601418 -0.2779600024
N  -1.5506701469 -0.5838100314 -0.0092000011
C  -1.2645300627 0.6782000661 0.1106600091
C  0.1105800048 1.2155901194 0.1800800115
N  1.0168701410 0.9111800790 -0.9305100441
C  1.1940500736 0.2031400204 0.3420400321
H  1.4774101973 -1.9076300859 0.2382400185
H  0.4496100247 -1.3817600012 1.5843001604
H  -2.0903401375 1.3961501122 0.2362300158
H  0.2284800261 2.1840400696 0.6494100690
H  1.7191301584 1.6424901485 -1.0413300991
H  2.0677402020 0.4422200322 0.9304900765
