19

C  1.4309601784 -1.2421000004 -0.4024000466
C  2.7381501198 -0.7394500375 0.1917300224
C  3.0314800739 0.7001700401 -0.2388700098
C  4.3040804863 1.2645801306 0.3923100233
N  5.4873404503 0.5593400598 -0.0489700064
C  6.1390304565 0.7297000885 -1.2305200100
N  5.9257903099 1.6012800932 -2.1439101696
H  1.2443901300 -2.2739403248 -0.0892900005
H  1.4626501799 -1.2196201086 -1.4962801933
H  0.5872500539 -0.6291300654 -0.0700800121
H  3.5500702858 -1.4030401707 -0.1272500157
H  2.6807601452 -0.7971301079 1.2846100330
H  2.1893401146 1.3381600380 0.0569400042
H  3.0989303589 0.7501000762 -1.3325300217
H  4.2388501167 1.1926100254 1.4840301275
H  4.3916802406 2.3320300579 0.1591400057
H  5.7332401276 -0.2616000175 0.4945000410
H  6.9556803703 -0.0014500001 -1.3671700954
H  5.1502404213 2.2071201801 -1.8732701540
