17

C  0.7596200705 2.9947202206 2.2357902527
N  1.3445000648 2.1878800392 1.1933300495
C  2.4590501785 2.5547802448 0.4742900431
N  2.7930700779 3.7730002403 0.2082700133
C  3.3379302025 1.4233201742 -0.0756700113
O  3.1177902222 0.2370300144 0.6924100518
C  3.9309902191 -0.8308400512 0.2231300175
H  -0.1020400077 2.4732303619 2.6642901897
H  0.4059300125 3.9539504051 1.8461800814
H  1.4831601381 3.1766903400 3.0366902351
H  1.3802200556 1.1925101280 1.4260201454
H  2.0938801765 4.4046902657 0.6015200019
H  4.3895506859 1.7264401913 -0.0160000008
H  3.0568201542 1.2508901358 -1.1201400757
H  3.7607502937 -1.6996802092 0.8643500805
H  4.9900903702 -0.5613500476 0.2745600343
H  3.6575703621 -1.0943599939 -0.8031900525
