16

C  0.9906800985 0.0357500017 -0.0096700005
N  2.4369602203 0.0006000000 -0.0018200001
C  3.2346701622 1.1164300442 0.0081200004
C  4.5472507477 0.7046700716 0.0140300011
C  4.5415506363 -0.7082200646 0.0070900004
C  3.2238602638 -1.1302000284 -0.0031100002
C  2.6959600449 -2.5213501453 -0.0142100006
H  0.6487300396 1.0739401579 -0.0039800005
H  0.6277000308 -0.4757600129 0.8852700591
H  0.6378600597 -0.4629700482 -0.9158100486
H  2.8099000454 2.1116302013 0.0102500012
H  5.4139504433 1.3521101475 0.0222700015
H  5.4088306427 -1.3562300205 0.0089700008
H  1.6038300991 -2.5635004044 -0.0077200006
H  3.0561902523 -3.0660600662 0.8645800948
H  3.0455002785 -3.0474903584 -0.9084800482
