11

N  0.9847900867 -0.0447100066 -0.0000000000
C  2.3281900883 -0.0829000026 -0.0000000000
N  3.0890803337 -1.1093600988 -0.0000000000
C  3.0605201721 1.1475601196 0.0000000000
C  3.6650102139 2.1850602627 0.0000000000
C  4.4312300682 3.5115902424 0.0000000000
C  5.0307002068 4.5510907173 0.0000000000
H  0.4952400327 0.8406000733 0.0000000000
H  0.4333700240 -0.8889900446 0.0000000000
H  2.5167200565 -1.9543200731 -0.0000000000
H  5.5656208992 5.4716205597 -0.0000000000
