17

C  0.8625600338 -1.2384301424 0.8604900241
C  1.1290900707 -0.4167100191 -0.3735200167
C  0.9938100576 1.0803600550 -0.4035200477
C  -0.2484300137 1.6301901340 0.3137200475
C  -1.4791700840 0.7829700708 0.1443100125
C  -1.3930600882 -0.5279700160 -0.1283600032
C  -0.1253400147 -1.2505800724 -0.2825600207
H  1.4625002146 -2.1289200783 1.0142600536
H  0.5982000232 -0.7335900664 1.7825100422
H  1.9176301956 -0.7585100532 -1.0352300406
H  1.8945702314 1.5395901203 0.0194100011
H  0.9519701004 1.3884201050 -1.4562301636
H  -0.0456800014 1.7257701159 1.3874601126
H  -0.4492200315 2.6415400505 -0.0584400073
H  -2.4488301277 1.2532300949 0.2779600024
H  -2.3085901737 -1.1067200899 -0.2290600240
H  -0.1753600091 -2.1452100277 -0.8943400383
