15

C  1.8305602074 -1.0011100769 -0.6224900484
C  2.6844100952 -0.4455000460 0.2497100085
C  3.0858702660 1.0082000494 0.2527000010
C  2.7085702419 1.6639201641 1.5570901632
C  1.8644201756 2.6992702484 1.6763401031
C  4.5463304520 1.1040301323 0.0659900084
C  5.7346301079 1.1821601391 -0.0959400088
H  1.5908801556 -2.0582101345 -0.5663099885
H  1.3573501110 -0.4197800159 -1.4080200195
H  3.1310300827 -1.0797500610 1.0137500763
H  2.5949101448 1.5299401283 -0.5795900226
H  3.1629600525 1.2590100765 2.4601602554
H  1.3830301762 3.1464500427 0.8119900823
H  1.6398700476 3.1221001148 2.6505901814
H  6.7878303528 1.2494300604 -0.2422200143
