10

O  0.9881600738 -0.0710400045 -0.3015600145
C  2.3512301445 -0.0304700024 0.0864600018
C  2.7878801823 1.3944100142 0.0539900027
C  3.3408503532 2.0476601124 1.0844401121
H  0.7070300579 -0.9983100891 -0.2345000207
H  2.9375102520 -0.6206400394 -0.6242300272
H  2.4488701820 -0.4699200392 1.0842200518
H  2.6293501854 1.9229301214 -0.8831100464
H  3.5099802017 1.5664701462 2.0424201488
H  3.6266803741 3.0905902386 0.9883000255
