15

O  1.1619400978 -0.1020500064 -0.5756700635
C  2.5368301868 -0.0422000028 -0.2306500226
C  2.7601702213 1.2209401131 0.5493400097
C  3.2509202957 1.2434500456 1.7996701002
C  3.6174204350 -0.0029500001 2.5607101917
C  3.3612103462 -1.2714900970 1.7924700975
C  2.8754401207 -1.2863901854 0.5382800102
H  0.6854100227 -0.2830000222 0.2536800206
H  3.1215803623 -0.0096800001 -1.1547200680
H  2.5147402287 2.1533000469 0.0470300019
H  3.3990104198 2.1934401989 2.3042402267
H  4.6791105270 0.0421400033 2.8268501759
H  3.0418603420 -0.0301700030 3.4921603203
H  3.5896003246 -2.2079701424 2.2925701141
H  2.7169301510 -2.2331101894 0.0302400030
