17

C  1.1525201797 -0.0139300013 0.1644200087
N  2.5940001011 -0.0733800083 0.2381500155
C  3.3400602341 1.1735501289 0.0968200043
C  4.4807806015 0.7976600528 -0.8481600881
C  4.7342801094 -0.6812199950 -0.5760800242
C  3.3496901989 -1.1387900114 -0.1856600195
N  3.0232703686 -2.3764500618 -0.2611600161
H  0.6909600496 -0.9482600689 0.4976200163
H  0.8287600875 0.1878000051 -0.8628600836
H  0.7694600821 0.7847800255 0.8102000952
H  3.7284402847 1.4771101475 1.0754301548
H  2.7373101711 1.9903701544 -0.3138700128
H  4.1523103714 0.9264300466 -1.8875401020
H  5.3714303970 1.4143000841 -0.6989400387
H  5.1077103615 -1.2127799988 -1.4546101093
H  5.4118208885 -0.8297200799 0.2701400220
H  2.0685501099 -2.4934902191 0.0796800032
