16

C  0.9714900255 0.0376700014 -0.1063200086
C  2.4549300671 -0.0215300005 0.0092900004
N  3.2363903522 -0.7566200495 -0.9712700844
C  3.3412702084 0.7121000886 -0.9760900736
C  4.6599802971 1.3492301702 -0.5717300177
C  5.9731006622 1.0325300694 -1.2444500923
O  5.2391104698 2.2175602913 -1.5637100935
H  0.5888200402 0.9051401019 0.4399300516
H  0.5229700804 -0.8613700271 0.3272300065
H  0.6377200484 0.1179100126 -1.1458700895
H  2.7863600254 -0.1047900096 1.0380901098
H  2.6627202034 -1.0673900843 -1.7572400570
H  2.8399901390 1.1994700432 -1.8107300997
H  4.7178807259 1.6947600842 0.4562500417
H  5.9929103851 0.2348200232 -1.9760501385
H  6.8815207481 1.1417500973 -0.6668500900
