15

C  0.8123600483 -0.0873500109 -0.0496700034
C  2.2738401890 -0.3812100291 0.0996100083
C  2.8075404167 -1.5840500593 -0.1630600244
O  3.0110001564 0.6961000562 0.6383700371
C  4.2385802269 0.9539500475 0.1296500117
N  4.9894504547 1.8564200401 0.6707700491
N  6.1947002411 1.9880001545 0.0567500032
H  0.6610000730 0.7155900598 -0.7773800492
H  0.3911600411 0.2309300154 0.9098400474
H  0.2492500097 -0.9626600742 -0.3891200125
H  2.1949801445 -2.3981602192 -0.5392200351
H  3.8547804356 -1.8024001122 0.0119700013
H  4.5136103630 0.3542800248 -0.7531300783
H  6.5773105621 2.9098503590 0.2890800238
H  6.8670606613 1.3393599987 0.4769000113
