15

O  1.1120800972 -0.1695800126 0.0229700003
C  2.5409002304 -0.0630400032 0.0121100005
C  3.2042500973 -0.5528200865 -1.2420201302
C  3.1119103432 0.9280601144 -0.9676200747
C  4.3245301247 1.7204500437 -0.5914400220
C  4.9316101074 2.1027102470 -1.8708802462
C  5.4355401993 2.4195401669 -2.9146201611
H  0.7123301029 0.5077400208 0.5950700641
H  3.0657901764 -0.2353700250 0.9465300441
H  2.5748302937 -0.9624800682 -2.0237901211
H  4.1667604446 -1.0414401293 -1.1491800547
H  2.4021000862 1.5071601868 -1.5503001213
H  5.0260801315 1.1359400749 0.0131000010
H  4.0320706367 2.6052401066 -0.0173900016
H  5.8799705505 2.6976702213 -3.8423702717
