12

C  1.0050300360 -0.0026800002 -0.0071300007
C  2.4864001274 0.0586900041 0.0000300000
C  3.2803304195 1.1239701509 0.0043000001
N  4.5397400856 0.6447200179 0.0108000003
C  4.5101900101 -0.7281000614 0.0105700009
O  5.4877204895 -1.4594701529 0.0157900024
O  3.1934204102 -1.1635401249 0.0035800003
H  0.5624100566 0.9984600544 -0.0039800005
H  0.6422000527 -0.5370700359 0.8762300611
H  0.6504700184 -0.5280200243 -0.8992100358
H  3.0437700748 2.1761901379 0.0032500003
H  5.3988900185 1.1726500988 0.0152900014
