14

C  0.9975400567 0.0241000019 -0.1175800115
C  2.4994401932 -0.0305600036 0.0886500031
C  3.1428601742 -1.2398101091 -0.5530700684
C  4.0411605835 -0.8759300709 -1.4712600708
N  4.0935101509 0.4770300388 -1.5516600609
C  3.2107303143 1.0861101151 -0.6758000851
O  3.0418801308 2.2880902290 -0.5540000200
H  0.5825700760 0.9408100843 0.3159900308
H  0.5047500134 -0.8305900693 0.3581900299
H  0.7329700589 0.0197100025 -1.1816000938
H  2.7673003674 0.0264400002 1.1481601000
H  2.9070603848 -2.2597999573 -0.2857100368
H  4.6627702713 -1.5067101717 -2.0909800529
H  4.6853704453 1.0099600554 -2.1739699841
