16

C  1.1857202053 -0.3092400134 -0.1029000059
N  2.6190702915 -0.1890600026 0.0580100045
C  3.3015403748 1.0033600330 0.0987600088
C  4.6247501373 1.2103000879 0.0104499999
C  5.6859903336 0.1694000214 -0.1467600167
C  5.0922503471 2.6204700470 0.0833300054
O  6.2751908302 2.9313302040 -0.0019400001
H  0.8855800629 -1.3541301489 0.0189900026
H  0.8823400736 0.0232700016 -1.1002600193
H  0.6573000550 0.2868300378 0.6477500200
H  3.1582500935 -0.9995300770 -0.2369700223
H  2.6222500801 1.8464602232 0.2258700132
H  5.2831807137 -0.8472100496 -0.1542800069
H  6.4033102989 0.2278900295 0.6788500547
H  6.2278203964 0.3162600398 -1.0869700909
H  4.3091001511 3.3853602409 0.2161400169
