19

C  1.0115700960 0.0297200009 -0.0692600012
C  2.5216701031 -0.0524500050 0.0566700026
C  3.1140902042 1.0435100794 0.9182600379
O  4.4028201103 0.5547000766 1.3033400774
C  4.3085603714 -0.8737700582 1.4321801662
C  5.5514802933 -1.5064401627 0.8309900761
C  3.0129702091 -1.3090500832 0.7507200241
H  0.6279200912 -0.7956400514 -0.6772100329
H  0.7122600675 0.9703400731 -0.5422100425
H  0.5248500705 -0.0214000009 0.9114700556
H  2.9751603603 -0.0055500004 -0.9419700503
H  2.5294702053 1.2225700617 1.8274102211
H  3.2266302109 1.9887602329 0.3798100352
H  4.2663702965 -1.1105700731 2.5003902912
H  5.6548604965 -1.2482601404 -0.2264800072
H  5.5265102386 -2.5965802670 0.9271900654
H  6.4499206543 -1.1330300570 1.3369400501
H  3.1482803822 -2.1419601440 0.0534700043
H  2.2987601757 -1.6448401213 1.5126501322
