12

O  1.0032800436 -0.0010700001 -0.0798300058
C  2.4200003147 0.0000000000 0.0000000000
C  2.9020202160 1.3611700535 0.0000000000
C  3.2993004322 2.4830701351 0.0000000000
C  3.7813203335 3.8442401886 0.0000000000
O  2.7274203300 4.7495503426 -0.3094500303
H  0.7208300829 -0.9293600321 -0.0152200004
H  2.8135702610 -0.5568500757 -0.8553400636
H  2.7151200771 -0.5200800300 0.9163500667
H  4.5765900612 3.9832003117 -0.7389500141
H  4.1846704483 4.1213502884 0.9782500863
H  2.2886302471 4.3951807022 -1.1018801928
