12

C  3.3157601357 -1.0490500927 0.5125600100
O  2.4583101273 0.0502100065 0.2464000136
C  3.0546400547 1.2301901579 0.1339100003
N  2.4475400448 2.3682601452 -0.1096000075
C  3.4773502350 3.2741603851 -0.1306400150
C  4.6702904701 2.6343200207 0.1035200134
O  4.4103899002 1.3074200153 0.2769200206
H  2.6997001171 -1.9508101940 0.5802100897
H  3.8339800835 -0.9218800664 1.4692701101
H  4.0360603333 -1.1926900148 -0.3001900315
H  3.3063104153 4.3260207176 -0.3111600280
H  5.7038402557 2.9394903183 0.1748500168
