17

C  0.6733300686 -0.3726700246 -0.1017600074
C  2.1964600086 -0.2389300317 -0.0412400030
N  2.7852103710 -1.0702400208 -1.1051501036
C  2.6705801487 1.2062700987 -0.2278400064
C  2.3186900616 2.1098401546 0.9353000522
N  2.6826801300 3.4142704010 0.7521800995
O  1.7617300749 1.7548801899 1.9645501375
H  0.1896700263 0.1712600142 0.7150900960
H  0.3700600266 -1.4223901033 -0.0123600010
H  0.2724800408 0.0142100006 -1.0454900265
H  2.5495200157 -0.6222500801 0.9231600761
H  2.4095001221 -0.7886400819 -2.0105001926
H  2.4895000458 -2.0383002758 -0.9738700986
H  2.2487502098 1.6358301640 -1.1450400352
H  3.7645902634 1.2248700857 -0.3222700357
H  3.2789902687 3.7111101151 -0.0074000005
H  2.5181403160 4.0548400879 1.5184001923
