17

C  0.9791100621 -0.1670200080 0.1990800053
C  2.4754300117 0.0267800018 0.0331800021
C  2.9002902508 1.4715800285 0.2301400155
O  2.1170501709 2.3543801308 0.5815400481
C  4.3779401779 1.7752401829 -0.0002800000
O  4.8260607719 1.4573000669 -1.3089500666
C  4.3799104691 2.4036602974 -2.2744603157
H  0.7128100991 -1.2183901072 0.0550700054
H  0.4236400425 0.4302300513 -0.5314100385
H  0.6505300403 0.1354400218 1.1987100840
H  2.7705702782 -0.2883000076 -0.9728100896
H  3.0106403828 -0.5876800418 0.7645200491
H  4.9511704445 1.1708700657 0.7106600404
H  4.5802607536 2.8269200325 0.2330900133
H  4.7727007866 2.1067500114 -3.2508502007
H  4.7579808235 3.4027502537 -2.0365600586
H  3.2872803211 2.4162702560 -2.3307001591
