16

C  0.9521900415 -0.0282400027 -0.0099600004
C  2.4331603050 0.0498700030 -0.0001500000
C  3.2804903984 1.1387801170 0.0077300007
C  4.6179003716 0.6567800045 0.0153400013
C  5.8594303131 1.4715000391 0.0257000010
C  4.5373001099 -0.7211200595 0.0121100005
N  3.2151901722 -1.0785200596 0.0023800002
H  0.5065000653 0.9711800814 -0.0016200001
H  0.5893200636 -0.5687700510 0.8703600764
H  0.6004200578 -0.5492000580 -0.9064201117
H  2.9698302746 2.1753203869 0.0079500005
H  5.6311802864 2.5419001579 0.0114600006
H  6.4739708900 1.2437001467 -0.8512200713
H  6.4471206665 1.2613000870 0.9251300693
H  5.3104906082 -1.4787800312 0.0155200008
H  2.8696701527 -2.0294201374 -0.0019400001
