14

C  1.0486100912 -0.0435400046 -0.1405900121
C  2.4676003456 0.3362600505 0.0882200077
O  3.4130702019 -0.4397900403 -0.6489400268
C  3.2953703403 0.9525100589 -1.0154200792
C  4.5067105293 1.7571501732 -0.7471100688
N  4.4289803505 2.6401503086 0.2900900245
O  5.5013403893 1.6783500910 -1.4541300535
H  0.3892900348 0.7837600708 0.1393100023
H  0.7863900661 -0.9113400578 0.4725500643
H  0.8532500863 -0.2951400280 -1.1882700920
H  2.6920003891 0.5418000817 1.1253200769
H  2.8241403103 1.1577299833 -1.9689501524
H  3.6084802151 2.7538201809 0.8656200767
H  5.2440700531 3.2084302902 0.4779100418
