16

C  2.8134500980 -0.3352400362 -1.8415302038
C  2.4684302807 0.0629900023 -0.4130400419
C  3.0273902416 1.4328200817 0.0000000000
O  2.4805200100 1.7087100744 1.3076701164
C  2.7387101650 3.0336802006 1.7591701746
C  4.4713902473 1.4328200817 0.0000000000
N  5.6224002838 1.4328200817 0.0000000000
H  2.3224902153 -1.2798401117 -2.0962302685
H  3.8908402920 -0.4768700302 -1.9695001841
H  2.4768900871 0.4245600402 -2.5533301830
H  2.8223903179 -0.7139601111 0.2778400183
H  1.3759200573 0.0775700063 -0.3043900132
H  2.6421604156 2.1891202927 -0.6950700283
H  2.1758601665 3.1936202049 2.6829502583
H  2.4095301628 3.7694003582 1.0193101168
H  3.8015003204 3.1673002243 1.9809300900
