14

C  0.9022200704 0.0749300048 -0.0076300004
C  2.3904001713 0.0149700018 0.0002200000
C  3.2932801247 1.0603899956 0.0039900001
C  4.6371307373 0.6050900817 0.0110700009
N  5.7015504837 1.4239300489 0.0158000011
C  4.7274403572 -0.7647900581 0.0123500014
S  3.1830701828 -1.5040301085 0.0050900006
H  0.5525299907 1.1126500368 0.0001100000
H  0.4881900251 -0.4239900410 0.8747800589
H  0.4989000261 -0.4074300528 -0.9040700793
H  2.9942102432 2.1003100872 0.0015100001
H  5.6158204079 2.4356400967 0.0224000029
H  6.6580104828 1.0840100050 0.0285000037
H  5.6171603203 -1.3774300814 0.0170100015
