14

C  1.1547601223 -0.4198600352 0.2578200102
N  2.5267100334 -0.1536600143 -0.1367900074
C  3.1088104248 1.0985101461 -0.1373300105
N  2.2865502834 2.1852800846 -0.3008400202
C  4.4467902184 1.2094000578 0.0000000000
C  5.1497902870 2.4270403385 0.0000000000
N  5.7252902985 3.4238402843 0.0000000000
H  0.9584801197 -1.4945400953 0.1947000027
H  0.4441400170 0.0860000029 -0.4031800330
H  0.9790600538 -0.1003200114 1.2901000977
H  3.1597201824 -0.8991000652 0.1455499977
H  1.5121101141 1.9647001028 -0.9195501208
H  2.7557902336 3.0402703285 -0.5895900726
H  5.0534505844 0.3195200264 0.1151900068
