19

C  0.9234601259 0.0266500022 0.0284900013
C  2.3859002590 0.0338700041 0.0644199997
C  3.5868504047 0.0413800031 0.0946000069
C  5.0582304001 0.0468100049 0.1314100027
C  5.6368103027 1.4702200890 0.0626400039
C  5.3329105377 2.2714302540 1.3320000172
C  7.1499705315 1.4101800919 -0.1587100178
H  0.5291400552 1.0468900204 0.0253900029
H  0.5156100392 -0.4923200309 0.9009200931
H  0.5589800477 -0.4810200334 -0.8694100976
H  5.4269604683 -0.5399900079 -0.7190500498
H  5.4078607559 -0.4605100155 1.0387001038
H  5.1919703484 2.0001702309 -0.7899600863
H  5.7429304123 1.7786400318 2.2202003002
H  4.2549700737 2.3928501606 1.4783501625
H  5.7702603340 3.2738502026 1.2707000971
H  7.6521906853 0.8913400769 0.6649900675
H  7.5729503632 2.4176900387 -0.2330300063
H  7.3867101669 0.8808701038 -1.0877699852
