16

N  1.0291701555 0.0081000011 0.2647600174
C  2.4700002670 0.0000000000 0.0000000000
C  2.7536201477 -0.7100700736 -1.3459500074
C  4.2235703468 -0.8817400932 -1.6413701773
C  4.8343105316 -2.0652601719 -1.7907401323
C  2.9520201683 1.3611700535 0.0000000000
C  3.3493003845 2.4830701351 0.0000000000
H  0.8659300804 0.4654000103 1.1604100466
H  0.7033801079 -0.9504600763 0.3677100241
H  2.9585502148 -0.5612800717 0.8061100245
H  2.3070602417 -0.1434900165 -2.1740000248
H  2.2654502392 -1.6938501596 -1.3432600498
H  4.8098707199 0.0280700028 -1.7586002350
H  4.2978005409 -3.0040402412 -1.7005500793
H  5.8954606056 -2.1150500774 -2.0154900551
H  3.6975204945 3.4899401665 -0.0037000002
