13

C  0.9188500643 -0.0835200027 0.1720200032
C  2.2363603115 -0.0169700012 -0.0556300059
C  3.0129201412 1.2612700462 -0.1818100065
N  4.3149704933 1.0852100849 0.4515500367
N  5.0299105644 -0.0313300006 0.1591500193
C  4.3341503143 -1.0950400829 -0.0996500030
O  2.9729902744 -1.2181000710 -0.1715200096
H  0.3143300116 0.8090500832 0.2767500281
H  0.4207600355 -1.0439701080 0.2615300119
H  2.4870700836 2.0949902534 0.2947800159
H  3.1466803551 1.5037300587 -1.2416201830
H  4.8888306618 1.9222501516 0.3421100378
H  4.8080906868 -2.0663602352 -0.3044000268
