16

C  0.9641900659 0.1562500000 0.3516300023
N  2.3897802830 -0.0923100114 0.1614900082
C  3.0708403587 0.9831300974 -0.0283400025
N  4.4288306236 1.0526601076 -0.2366000116
C  5.2405905724 -0.1410500109 -0.0365500040
C  5.1226301193 2.3239202499 -0.1193700060
H  0.4863000214 -0.7613100410 0.7082300782
H  0.4885000288 0.4371400476 -0.5936900377
H  0.7793000340 0.9352101088 1.0996700525
H  2.5914101601 1.9787400961 -0.0421100035
H  4.7974500656 -1.0075600147 -0.5393900275
H  5.3350605965 -0.3634000123 1.0315500498
H  6.2455406189 -0.0094900010 -0.4511300325
H  4.5451402664 3.1301202774 -0.5843800306
H  6.0954504013 2.2910401821 -0.6215800643
H  5.2833104134 2.5743000507 0.9344900846
