18

C  0.9928800464 -0.0553100035 0.2630500197
C  2.3715703487 0.1242400110 -0.2839400172
C  3.1593701839 1.1973299980 -0.1037200093
C  2.8095102310 2.4772102833 0.5876400471
C  3.5621001720 3.4753303528 -0.2770800292
N  4.8225202560 2.8065302372 -0.6195600629
C  4.5142402649 1.3724000454 -0.7246400714
H  0.8839500546 -1.0694200993 0.6612100005
H  0.2545900345 0.0801200047 -0.5335700512
H  0.7659700513 0.6416000128 1.0742901564
H  2.7490501404 -0.7059000731 -0.8787400126
H  3.1999502182 2.4713103771 1.6116001606
H  1.7390201092 2.6966803074 0.6054800749
H  2.9950201511 3.6980502605 -1.1905201674
H  3.7446601391 4.4167304039 0.2492700070
H  5.1679401398 3.1522603035 -1.5127800703
H  4.5128402710 1.0564800501 -1.7734001875
H  5.2724905014 0.8042600751 -0.1769300103
