13

C  3.0903301239 -1.2299301624 0.4025000334
N  2.5690300465 -0.0357700028 -0.2211200148
C  3.2020702362 1.1567901373 -0.1417300105
N  2.5765602589 2.3316102028 -0.2614900172
O  3.5530302525 3.3014602661 -0.1315400004
C  4.7529406548 2.7034101486 0.0575100034
C  4.5879001617 1.3444401026 0.0588700064
H  2.4141602516 -2.0683701038 0.2081000209
H  3.1692004204 -1.1042500734 1.4873300791
H  4.0714101791 -1.4985800982 -0.0021800001
H  1.5541900396 0.0264700036 -0.2227000296
H  5.5971803665 3.3678503036 0.1660600156
H  5.3598108292 0.6010100842 0.1777400076
