20

C  1.0699800253 -0.1679900140 -0.1809600145
C  2.5540304184 -0.1552900076 -0.5103500485
C  3.3366303444 0.7285600305 0.4599900246
C  4.8144502640 0.7334700227 0.0972000062
C  5.7629308701 1.4124200344 1.1093201637
N  6.7531304359 0.3434400260 0.8389200568
C  5.6389703751 -0.5348500609 0.4106100202
H  0.5310000181 -0.8064800501 -0.8878501058
H  0.6460100412 0.8389900923 -0.2416600138
H  0.8957000375 -0.5554000139 0.8274500966
H  2.6946802139 0.2027300149 -1.5372301340
H  2.9392900467 -1.1812300682 -0.4778800607
H  3.1915602684 0.3711300194 1.4865700006
H  2.9480102062 1.7532101870 0.4184400439
H  4.9794902802 1.1015601158 -0.9266000390
H  5.4112706184 1.4206900597 2.1480901241
H  6.0938100815 2.4215102196 0.8444100618
H  7.3905205727 0.5762900114 0.0764900073
H  5.8646507263 -1.1757601500 -0.4464400411
H  5.2452502251 -1.1587702036 1.2218800783
