19

C  0.8809100986 -0.1052900031 0.1388100088
C  2.3952300549 -0.0129400017 -0.0421400033
C  2.8327503204 -0.0516900048 -1.5132501125
N  2.3449602127 1.1061600447 -2.2625002861
C  3.0885500908 1.0595301390 0.8358100653
N  4.0829305649 0.0516900048 1.2613101006
C  3.1705803871 -1.0273400545 0.8402800560
H  0.6048100591 -0.1623700261 1.1977300644
H  0.4820600450 -0.9975900650 -0.3552400172
H  0.3757700324 0.7715200782 -0.2782800198
H  2.4690001011 -0.9684200883 -1.9919801950
H  3.9262104034 -0.0668800026 -1.5905101299
H  1.3304800987 1.0568200350 -2.3502802849
H  2.7048802376 1.0634500980 -3.2160902023
H  2.4840900898 1.4377501011 1.6693000793
H  3.5146102905 1.9202800989 0.3106700182
H  4.9434399605 0.0942800045 0.7147700787
H  3.6578102112 -1.8548601866 0.3145000339
H  2.6010200977 -1.4506000280 1.6766700745
