16

O  1.1462299824 0.2040400207 0.2952600121
C  2.5088901520 -0.0452600047 -0.0286100022
C  2.7153301239 -1.4980700016 -0.5120900273
N  2.7682502270 -1.4692701101 -1.9930100441
C  3.1250402927 -0.0963300094 -2.3674302101
C  2.0817000866 0.9768500924 -2.4141502380
C  2.9382700920 0.8074401021 -1.1842900515
H  1.0015001297 1.1594400406 0.1992500126
H  3.1145403385 0.1554800123 0.8622700572
H  1.9310301542 -2.1763300896 -0.1643000096
H  3.6854302883 -1.8601502180 -0.1479700059
H  3.4402902126 -2.1579401493 -2.3274703026
H  4.0088005066 0.0308100022 -2.9838202000
H  2.2685902119 1.8339501619 -3.0496702194
H  1.0414401293 0.6729700565 -2.3794901371
H  3.7089402676 1.5279901028 -0.9548200965
