21

C  2.1888101101 -0.5339800715 1.3027900457
C  2.4845800400 0.0669400021 -0.0640000030
C  3.0716600418 1.4640401602 0.0327100009
C  2.0148501396 2.5432701111 0.0999800041
C  4.4043207169 1.7178400755 0.0357900038
C  5.4661602974 0.6424400210 0.0471400023
C  5.0010604858 3.1050002575 0.0253900029
H  1.7694101334 -1.5389901400 1.1889101267
H  1.4640001059 0.0700599998 1.8586502075
H  3.0981903076 -0.6152100563 1.9078301191
H  1.5589901209 0.1025600061 -0.6522400975
H  3.1455900669 -0.6022200584 -0.6247000694
H  1.2004700899 2.2413702011 0.7673400044
H  1.5932500362 2.7184903622 -0.8950200677
H  2.3877601624 3.4916102886 0.4942700267
H  5.0804505348 -0.3556900322 0.2669000030
H  6.2118306160 0.8614400625 0.8196400404
H  5.9748406410 0.6060100794 -0.9216600657
H  4.2958207130 3.8815002441 -0.2780900300
H  5.8295602798 3.1525902748 -0.6901500225
H  5.3898406029 3.3550500870 1.0173400640
