15

C  1.2400401831 -0.3704400361 -0.2010300159
N  2.6608002186 -0.1669800133 -0.0811500102
C  3.1916303635 1.1000801325 -0.1077100039
O  2.5309801102 2.1180400848 -0.2650000155
C  4.6646604538 1.1120401621 0.0739100054
C  5.3195304871 2.2754700184 0.1533300132
N  6.6719107628 2.4512801170 0.3133400381
H  1.0426501036 -1.4430000782 -0.2613500059
H  0.8723700643 0.1288900077 -1.1015700102
H  0.7435600758 0.0521900058 0.6764500737
H  3.2493202686 -0.9629700780 0.1201600134
H  5.1876301765 0.1686900109 0.1395900100
H  4.7759904861 3.2204000950 0.1002000049
H  7.2400803566 1.6461100578 0.0643600002
H  7.0210604668 3.3206703663 -0.0858500078
