14

O  1.2198401690 -0.2535600364 0.0609500036
C  2.6052401066 0.0680700094 -0.0328100026
C  2.8239603043 1.5494601727 0.0325700045
C  1.8763601780 2.4919202328 0.1637400091
C  4.2319903374 2.0138401985 -0.0571200065
N  5.2349405289 1.2038500309 -0.1780700088
O  6.4174904823 1.9510802031 -0.2344600260
H  1.1605801582 -1.2221300602 0.0076700007
H  2.9786701202 -0.3301000297 -0.9820700288
H  3.1222503185 -0.4300100505 0.7940200567
H  0.8283700943 2.2132401466 0.2348300219
H  2.1027700901 3.5519001484 0.2050800174
H  4.3891401291 3.1073501110 -0.0145900007
H  7.1000704765 1.2594101429 -0.3192800283
