11

N  0.9397300482 0.1279900074 0.1342000067
C  2.3132603168 -0.0326800011 0.0669200048
C  3.0009701252 -1.1821800470 0.0119300010
C  2.3654100895 -2.5083801746 0.0805000067
O  3.0239300728 -3.5316102505 -0.0588400066
C  3.0533702374 1.2018601894 0.0488000065
N  3.6306502819 2.2074902058 0.0160200018
H  0.6211800575 1.0636900663 -0.1242100075
H  0.3976700306 -0.5917000175 -0.3361000419
H  4.0847601891 -1.2030501366 -0.0579300039
H  1.2798299789 -2.5346901417 0.2629300058
