15

C  2.7451500893 1.3017201424 -2.8530702591
C  3.4633004665 1.6726801395 -1.5918802023
O  3.0086700916 2.4086301327 -0.7275600433
O  4.6843504906 1.0663501024 -1.5586501360
C  5.5019807816 1.3278200626 -0.4024700224
C  6.9575605392 0.9811900258 -0.5563100576
C  6.5256905556 2.4181501865 -0.5503200293
H  3.3211102486 1.6347700357 -3.7203602791
H  1.7689502239 1.7954801321 -2.8728604317
H  2.5890002251 0.2203000188 -2.8862900734
H  5.0613102913 1.1772900820 0.5790700316
H  7.2848205566 0.5523800850 -1.4958101511
H  7.4823107719 0.6044100523 0.3135800362
H  6.7473707199 3.0181701183 0.3252200484
H  6.5564203262 2.9671003819 -1.4844400883
