20

C  1.8588000536 1.0376900434 -1.8955302238
O  3.1569302082 1.3408501148 -1.4040300846
C  3.2817702293 1.0237300396 -0.0174899995
C  4.6813101768 1.3966401815 0.4595600367
C  5.0215401649 2.8853702545 0.3074000180
C  4.1022205353 3.8397903442 1.0706300735
N  4.0958604813 3.5569102764 2.5021302700
H  1.8456001282 1.2274000645 -2.9719903469
H  1.1138100624 1.6808301210 -1.4182201624
H  1.6145801544 -0.0149900019 -1.7235500813
H  3.1317803860 -0.0536700040 0.1178500131
H  2.5137801170 1.5512400866 0.5585100055
H  5.4147906303 0.8302800655 -0.1286100000
H  4.8038401604 1.0863900185 1.5031901598
H  5.0025105476 3.1571700573 -0.7548400164
H  6.0559902191 3.0376901627 0.6417300105
H  3.0799400806 3.7826302052 0.6855000854
H  4.4453701973 4.8684206009 0.9130401015
H  5.0434904099 3.6474101543 2.8697602749
H  3.5389401913 4.2638602257 2.9814500809
