16

C  1.8069601059 -0.6675100327 0.3552400172
C  1.9449400902 0.1928200126 -0.8978900909
N  0.8027700782 -0.0506200045 -1.8035401106
C  2.0124702454 1.6810901165 -0.5443200469
C  2.3553202152 2.5587401390 -1.7270901203
O  1.7309601307 2.2099201679 -2.8749802113
O  3.0687701702 3.5481503010 -1.6438901424
H  2.6692702770 -0.5277200341 1.0159200430
H  1.7554800510 -1.7311800718 0.0978800133
H  0.9044900537 -0.4120000601 0.9218500853
H  2.8603203297 -0.0945800021 -1.4290001392
H  -0.0685600042 0.0076200003 -1.2636500597
H  0.8354900479 -1.0323200226 -2.1024100780
H  2.7975003719 1.8340600729 0.2066100240
H  1.0686700344 2.0382502079 -0.1158400103
H  1.2019300461 1.3792201281 -2.7511000633
