15

C  0.9199200869 0.2045700103 -0.0157000013
C  2.2547202110 0.1323500127 -0.0341300033
C  3.0692403316 1.2938301563 -0.0017700001
C  3.7869002819 2.2579100132 0.0238300022
C  4.6718301773 3.3843002319 0.0552800037
C  4.8229799271 4.2170104980 -1.1910300255
C  4.0964503288 4.7745203972 -0.0015400001
H  0.3181800246 -0.6981300712 -0.0413700044
H  0.3987600207 1.1560201645 0.0251100026
H  2.7491402626 -0.8336400390 -0.0754400045
H  5.5630707741 3.2540102005 0.6626000404
H  4.2373104095 3.9593701363 -2.0665802956
H  5.8077502251 4.6085300446 -1.4184501171
H  4.5883502960 5.5480704308 0.5771600008
H  3.0213003159 4.8934803009 -0.0733700097
