17

C  1.0216201544 -0.1916400194 0.0136500010
N  2.4644200802 -0.0147300009 0.0036000002
C  2.9607002735 1.3856801987 0.0000000000
C  2.4815802574 2.1386501789 -1.2576600313
C  2.4818000793 2.1406400204 1.2556501627
C  4.4047007561 1.3856801987 0.0000000000
N  5.5557107925 1.3856801987 0.0000000000
H  0.7983500361 -1.2643799782 0.0327500030
H  0.5453600287 0.2185200155 -0.8806200624
H  0.5575800538 0.2385000139 0.9045200348
H  2.8555800915 -0.5067400336 -0.8011900187
H  2.7630002499 1.6060301065 -2.1742901802
H  2.9316401482 3.1376004219 -1.3159400225
H  1.3953300714 2.2769401073 -1.2669800520
H  2.7549502850 1.6041800976 2.1725201607
H  1.3968900442 2.2889699936 1.2605501413
H  2.9398803711 3.1357202530 1.3177000284
