13

O  3.2265200615 -0.7444600463 -0.7760400176
C  2.2160902023 0.0484300032 -0.1652200073
C  2.7608401775 1.4103400707 -0.0160500016
C  2.2167401314 2.5776202679 0.4739100337
N  3.1223301888 3.6061003208 0.4108800292
C  4.2074704170 3.0807101727 -0.1105500087
N  4.0372004509 1.7564601898 -0.3849400282
H  2.8450102806 -1.6332601309 -0.8790600300
H  1.9669400454 -0.3830900192 0.8087600470
H  1.3291301727 0.0485300012 -0.8055700660
H  1.2213701010 2.7347102165 0.8692800999
H  5.1333308220 3.6026601791 -0.3100500405
H  4.7116599083 1.1203202009 -0.7898700833
