17

C  1.5419701338 -0.6376900077 -0.9541600347
O  2.2450902462 -0.0851700082 0.1497900039
C  2.9957802296 1.1380400658 -0.0782500133
C  4.2208304405 0.8762100339 -0.9465801120
C  2.1970102787 2.4080502987 -0.4420700371
O  2.8430302143 3.1679203510 0.6112600565
C  3.3338301182 1.9376701117 1.2020800114
H  0.8878501058 -1.4312001467 -0.5836300254
H  2.2446601391 -1.0723000765 -1.6701601744
H  0.9271500707 0.1219300032 -1.4451001883
H  4.8451504707 1.7715201378 -1.0457100868
H  3.9322302341 0.5692999959 -1.9568802118
H  4.8409204483 0.0834500045 -0.5140200257
H  1.1153600216 2.3558502197 -0.2794200182
H  2.3964402676 2.8331103325 -1.4299701452
H  4.3933205605 2.0082402229 1.4642801285
H  2.7568202019 1.6699401140 2.0933201313
