13

C  1.1592600346 -0.2992900312 -0.1970800161
N  2.5906603336 -0.1391900033 -0.1929800063
C  3.1631402969 1.0302101374 0.2421700209
O  2.5345101357 1.9869601727 0.6743600965
C  4.6444306374 1.0233501196 0.1291900128
C  5.3572607040 2.0966401100 0.4920700192
H  0.9224700928 -1.3352600336 -0.4500300288
H  0.7278900146 0.3748500347 -0.9421000481
H  0.7577500343 -0.0539400019 0.7900800705
H  3.1611902714 -0.8702400923 -0.5928700566
H  5.1349301338 0.1361500174 -0.2473800182
H  4.8763804436 2.9944100380 0.8738700151
H  6.4392304420 2.1009702682 0.4155300260
