16

C  1.1097201109 0.1574200243 0.2216900140
C  2.4069101810 -0.0804100037 -0.0121400002
C  2.9998800755 -1.4664300680 -0.1381700039
C  4.2210001945 -1.2742100954 -1.0529201031
C  4.5929903984 0.1744900197 -0.9226800799
N  3.8340303898 1.1833701134 -1.6497400999
C  3.4497704506 0.9149000645 -0.2755900323
H  0.7278900146 1.1728700399 0.2536900342
H  0.4031700194 -0.6522000432 0.3656200171
H  2.3031001091 -2.2034699917 -0.5502400398
H  3.3283002377 -1.8073701859 0.8510200381
H  5.0420904160 -1.9314101934 -0.7488300800
H  3.9664504528 -1.5126001835 -2.0928201675
H  5.6117506027 0.3843100071 -0.6370300651
H  4.3507804871 2.0613100529 -1.7099601030
H  3.6660301685 1.6556900740 0.4837000370
