16

C  1.0427800417 -0.0001000000 -0.0523900017
C  2.5333702564 -0.0142300008 -0.0334100015
C  3.3551204205 -0.7408900857 -1.0652701855
N  2.7194399834 -1.5037502050 -2.1425004005
C  3.3096902370 0.7713300586 -1.0656900406
C  4.4687900543 1.4992901087 -0.6352500319
C  5.4384407997 2.1114501953 -0.2788500190
H  0.6683500409 0.7595100403 0.6413500309
H  0.6519200802 -0.9713200331 0.2665000260
H  0.6363400221 0.2262700200 -1.0431801081
H  2.9064002037 -0.0390500017 0.9857800603
H  4.2760605812 -1.1984500885 -0.7049100399
H  1.8870000839 -1.0388901234 -2.5001802444
H  2.4121801853 -2.4140901566 -1.8013300896
H  2.7469501495 1.2438300848 -1.8649600744
H  6.3002705574 2.6533501148 0.0341100022
