16

C  1.0582801104 0.3446600139 1.1230601072
N  2.5000202656 0.5731700063 1.1443099976
C  2.9607002735 1.3856801987 0.0000000000
C  2.4389402866 2.8442101479 0.0995000079
O  2.5720300674 3.3564903736 1.4321900606
C  4.4047007561 1.3856801987 0.0000000000
C  5.5948605537 1.3856801987 0.0000000000
H  0.7919300199 -0.3455400169 1.9294601679
H  0.7323700786 -0.1022800058 0.1779500097
H  0.4999900460 1.2683501244 1.2973201275
H  2.9707002640 -0.3322200179 1.0923001766
H  2.6122901440 0.9469200373 -0.9431700706
H  1.3757801056 2.8903102875 -0.1595600098
H  2.9780001640 3.5162804127 -0.5765000582
H  2.6207501888 2.5595102310 2.0009500980
H  6.6604304314 1.3926601410 0.0101300012
