17

C  1.0078101158 -0.0158400014 -0.1324800104
N  2.4549403191 0.0233000014 -0.3457200229
C  3.0448102951 1.2097800970 0.2823700011
C  4.4714703560 1.3339101076 -0.2296900153
C  5.2369403839 0.0567200035 0.0511200018
C  4.3707504272 -1.1667500734 -0.0881600082
N  3.0809001923 -1.1794600487 -0.2361900210
H  0.5343800783 0.9172800779 -0.4555500448
H  0.7654500604 -0.1904600263 0.9206700921
H  0.5581500530 -0.8206600547 -0.7249100804
H  2.4933400154 2.1165001392 0.0087000001
H  3.0306904316 1.1192400455 1.3755601645
H  4.9756803513 2.1878302097 0.2365200222
H  4.4581904411 1.5231601000 -1.3100900650
H  5.6264805794 0.0580400042 1.0746901035
H  6.0947403908 -0.0409400053 -0.6222100854
H  4.8842000961 -2.1388499737 -0.0068300008
