16

C  0.7503500581 0.1304200143 0.0085500004
C  2.2197799683 -0.0205700025 0.2403000295
C  3.1368801594 0.8778500557 -0.1527200192
C  4.6106400490 0.7340000272 0.0898000076
C  5.3117203712 0.6552301049 -1.2404000759
N  6.1035704613 1.6000000238 -1.6352601051
O  6.6221103668 1.2614901066 -2.8896200657
H  0.3783800304 -0.7135400772 -0.5796300173
H  0.5082500577 1.0537500381 -0.5262800455
H  0.2225200236 0.1417400092 0.9672201276
H  2.5302402973 -0.9201700687 0.7670700550
H  2.8205101490 1.7824001312 -0.6712700129
H  4.8434705734 -0.1770100147 0.6494900584
H  4.9779300690 1.5949701071 0.6572700739
H  5.1263604164 -0.2441000193 -1.8554100990
H  7.2020101547 2.0206201077 -3.0887701511
