14

C  0.9426701069 0.0172800012 -0.0077900006
C  2.4348104000 0.0292800032 -0.0011100001
C  3.2013702393 1.1816500425 0.0019400001
S  4.8819103241 0.8658600450 0.0103200004
C  4.6126604080 -0.8219701052 0.0102500012
C  3.2732200623 -1.1282200813 0.0034700001
N  2.8153803349 -2.3929901123 0.0018600001
H  0.5339100361 1.0329400301 0.0006800001
H  0.5609400272 -0.5069600344 0.8741900921
H  0.5694400668 -0.4891100228 -0.9037200809
H  2.8531200886 2.2053902149 -0.0002200000
H  5.4533104897 -1.5003700256 0.0152400006
H  1.8277001381 -2.6219203472 -0.0218700022
H  3.4312701225 -3.1995604038 -0.0127600012
