15

C  1.0109400749 0.0033000002 0.0590600036
C  2.5031402111 0.0294600017 -0.0457200035
C  3.1934301853 1.1756900549 -0.0905300081
O  4.5589604378 1.2528101206 -0.1557300091
C  5.1915302277 -0.0164200012 0.0402700007
O  4.5479402542 -1.0934700966 -0.6320800781
C  3.2273602486 -1.2791301012 -0.1280100048
H  0.6342200041 -1.0218100548 0.1240300089
H  0.5545500517 0.4705500305 -0.8199200630
H  0.6771800518 0.5339000821 0.9568800926
H  2.7484703064 2.1620903015 -0.0866200104
H  6.2090005875 0.0615100041 -0.3546100259
H  5.2715907097 -0.2286300212 1.1145801544
H  3.2746300697 -1.7607001066 0.8549000621
H  2.7167901993 -1.9596701860 -0.8167700171
