18

C  2.6527101994 -1.4332600832 0.0820200071
C  2.4412403107 -0.1675800234 0.9040300846
C  3.1163303852 1.0603301525 0.2750600278
C  2.6643602848 2.3368003368 0.9865500927
C  4.6368603706 0.9741200805 0.3394600153
N  5.2943501472 1.8134500980 -0.5131200552
O  5.2631802559 0.2531400323 1.1065000296
H  2.1249103546 -2.2739601135 0.5434200168
H  3.7117102146 -1.6994000673 0.0154100014
H  2.2658503056 -1.3084601164 -0.9344900846
H  2.8118002415 -0.3340600133 1.9227101803
H  1.3615701199 0.0093800006 0.9831901193
H  2.8213200569 1.1259100437 -0.7800600529
H  2.9454901218 2.3188700676 2.0456902981
H  1.5774301291 2.4544701576 0.9241700768
H  3.1223502159 3.2262201309 0.5405900478
H  4.8253507614 2.3359901905 -1.2385101318
H  6.3050403595 1.7632501125 -0.5249500275
