16

C  0.8951400518 0.0128300004 0.1983800083
C  2.3979601860 0.0731300116 -0.0139900018
C  2.8067302704 -0.0397500023 -1.4767202139
C  3.1541900635 1.1430500746 0.8206101060
C  3.9954702854 -0.0534800030 1.3038200140
O  5.0665903091 -0.2441200167 1.8238102198
N  3.0849802494 -0.9385600686 0.8097900748
H  0.6326200366 0.0293200035 1.2621301413
H  0.4708400369 -0.9001400471 -0.2342500240
H  0.4031400383 0.8683300614 -0.2768200040
H  3.8960802555 -0.0410100035 -1.5986801386
H  2.4135601521 0.8053000569 -2.0522902012
H  2.4208703041 -0.9613300562 -1.9259600639
H  2.5883603096 1.6291900873 1.6209200621
H  3.7166802883 1.8864102364 0.2514000237
H  3.4152703285 -1.8580402136 0.5496800542
