15

N  0.9468700886 0.2376300097 -0.8412700891
N  1.7003600597 -0.3245000243 0.2255700231
C  2.6670203209 -1.3711200953 -0.0750600025
C  1.9745501280 -2.7010602951 -0.0438300036
C  2.2935302258 -3.7122602463 0.7756100893
C  1.4535701275 0.1153400093 1.5173001289
O  0.6526300311 0.9942000508 1.8222501278
H  0.9837900996 1.2559800148 -0.7169400454
H  -0.0365300030 0.0188699998 -0.6503100395
H  3.4750301838 -1.3269300461 0.6638200879
H  3.0986101627 -1.1889300346 -1.0649900436
H  1.1671800613 -2.8365302086 -0.7610100508
H  3.0967302322 -3.6341204643 1.5016701221
H  1.7506201267 -4.6522908211 0.7306400537
H  2.0648901463 -0.4090400338 2.2701601982
