13

O  1.1392101049 0.0394200049 -0.2059100121
N  2.5170602798 -0.0532200038 -0.3274700046
C  3.2111103535 -1.1579401493 0.0779400021
C  4.4442701340 -0.8165700436 0.4801200330
C  4.6351604462 0.6876300573 0.4086100459
C  3.2287003994 1.0930100679 -0.0377399996
N  2.7932503223 2.3096601963 -0.0915600061
H  0.9913300276 0.9987701178 -0.3469500244
H  2.7411003113 -2.1300802231 0.0594600029
H  5.1898703575 -1.5034600496 0.8521500826
H  4.8654007912 1.1181401014 1.3856300116
H  5.3763103485 0.9751900434 -0.3402200341
H  3.5378801823 2.9566900730 0.1914300174
