10

C  1.9779301882 0.4825200438 0.5187000632
O  1.5765000582 0.6698400378 -0.8604500294
C  2.7912402153 1.1747400761 -1.1650700569
N  2.9861302376 2.3365099430 -1.7735401392
O  3.7404203415 3.0695800781 -0.8332200646
C  3.8027203083 2.3623101711 0.3434000313
C  3.2331402302 1.1417601109 0.1404500157
H  2.0535001755 -0.5798300505 0.7692000866
H  1.3417201042 1.0068700314 1.2367601395
H  4.1824703217 2.9102501869 1.1927901506
