12

O  0.9567400813 -0.0096200006 -0.1761500090
C  2.3719902039 -0.0043600001 0.0131300008
C  2.9273900986 1.4328200817 0.0000000000
O  2.4670400620 2.1579701900 1.1433202028
C  4.3713903427 1.4328200817 0.0000000000
C  5.5615506172 1.4328200817 0.0000000000
H  0.6618000269 -0.9343701005 -0.1234600097
H  2.8182401657 -0.6020900607 -0.7892800570
H  2.5786402225 -0.4914000332 0.9728600979
H  2.5392501354 1.9614200592 -0.8770200610
H  2.7289400101 1.6514902115 1.9286401272
H  6.6273908615 1.4453500509 -0.0006900000
