14

C  1.0113400221 0.0518800057 0.0998900086
C  2.5152201653 -0.0836400017 -0.0222800002
O  3.1993801594 0.9568600655 0.7355200052
C  4.1400103569 -0.0343500040 1.2313001156
C  3.1896002293 -1.1691000462 0.8367400765
C  3.7817602158 -2.2600102425 0.1123900115
N  4.2563405037 -3.1464602947 -0.4700400531
H  0.5099400282 -0.7922000289 -0.3842300177
H  0.6663100719 0.9705001116 -0.3853500485
H  0.6917500496 0.0819500089 1.1466900110
H  2.8390803337 -0.0515200049 -1.0714700222
H  5.0922503471 0.0291800015 0.6934600472
H  4.3162903786 0.0742200091 2.3051702976
H  2.5726301670 -1.5022201538 1.6806900501
