17

C  3.0195500851 -1.2595901489 -0.3843700588
C  2.4095001221 0.0607000031 0.0610600039
O  1.8401300907 -0.1044600084 1.3552001715
C  3.4325201511 1.1544201374 0.1136200055
C  3.5736703873 2.1269102097 -1.0301800966
C  2.9943802357 2.5845100880 0.2773900330
O  3.8603403568 3.3963303566 1.0808001757
H  3.4622302055 -1.1756600142 -1.3817900419
H  2.2591402531 -2.0474300385 -0.4002100229
H  3.8003704548 -1.5876702070 0.3112900257
H  1.5909900665 0.3239500225 -0.6186200380
H  2.5737001896 -0.1535200179 1.9917001724
H  4.3339605331 0.8571700454 0.6388100386
H  2.9020302296 2.0407402515 -1.8758301735
H  4.5731201172 2.4561502934 -1.2898300886
H  1.9267700911 2.7793602943 0.3250600398
H  3.6905503273 4.3422102928 0.9299700856
