16

C  3.2839303017 -1.1746901274 0.3275700212
O  4.1567006111 -0.0540800020 0.3541300297
C  3.5404403210 1.1018501520 -0.2059500068
C  4.5431103706 2.2105503082 -0.1656400114
C  4.9398603439 2.9184103012 -1.2352000475
C  5.9481801987 4.0191302299 -1.1782000065
H  3.8007903099 -2.0245802402 0.7806900740
H  3.0246400833 -1.4334801435 -0.7034400702
H  2.3770902157 -0.9690000415 0.9041000605
H  2.6676001549 1.3800300360 0.3952900171
H  3.2161602974 0.8913800716 -1.2315400839
H  4.9636502266 2.4272701740 0.8132900596
H  4.5266399384 2.6947803497 -2.2160801888
H  6.3076105118 4.1999402046 -0.1603800058
H  5.5071902275 4.9475703239 -1.5537101030
H  6.8091006279 3.7687604427 -1.8055500984
