13

C  1.0000001192 0.0000000000 0.0000000000
C  2.4440002441 0.0000000000 0.0000000000
C  3.6341602802 0.0000000000 0.0000000000
C  5.0654902458 -0.0039700004 0.0244300030
C  5.8102807999 -0.7630300522 -1.0422000885
N  5.7801904678 0.6935300827 -1.0428600311
H  0.6059499979 1.0208600760 0.0116400011
H  0.6059200764 -0.5205500126 0.8782300949
H  0.6060100794 -0.5003200173 -0.8899500370
H  5.5227904320 0.0484300032 1.0075900555
H  5.2473006248 -1.2470899820 -1.8310601711
H  6.7493200302 -1.2330200672 -0.7824400663
H  6.6521902084 1.0840301514 -0.6847800612
