23

C  0.9686800838 -0.1047800034 -0.0233500022
C  2.5000102520 0.0073300009 -0.0440100022
C  3.0299501419 -0.8434200883 -1.2079401016
C  3.0306003094 1.4868301153 -0.0420600064
C  2.5916202068 2.2743902206 -1.2916901112
C  2.5161800385 2.2374501228 1.2061400414
C  4.5741701126 1.5010900497 0.0188200008
H  0.5367100239 0.3841100037 0.8540600538
H  0.6631300449 -1.1566700935 0.0207500011
H  0.5162000060 0.3288300037 -0.9206400514
H  2.8600401878 -0.4686300457 0.8789900541
H  2.7055602074 -0.4529300332 -2.1777801514
H  2.6608102322 -1.8712301254 -1.1287600994
H  4.1218900681 -0.9005600810 -1.2047901154
H  2.9671401978 1.8174601793 -2.2120201588
H  2.9773004055 3.2999403477 -1.2607401609
H  1.5022801161 2.3429102898 -1.3660901785
H  2.7534401417 1.6869201660 2.1227900982
H  1.4333801270 2.3923201561 1.1717400551
H  2.9750502110 3.2294201851 1.2878501415
H  4.9409804344 0.9037700295 0.8604601026
H  4.9552803040 2.5208401680 0.1459200233
H  5.0224599838 1.1086301804 -0.8991700411
