14

O  1.0433200598 0.0943000019 -0.3927600384
N  2.3609700203 -0.0123400008 0.0663100034
C  2.9373402596 1.1438900232 0.1066800058
C  4.3582005501 1.2670600414 0.5822600722
C  4.5447402000 2.7735002041 0.6937300563
C  3.3215703964 3.3538601398 0.0573400036
C  2.3884899616 2.4585101604 -0.2750100493
H  0.7273500562 -0.8255200982 -0.3313400149
H  5.0296406746 0.8308100700 -0.1632200181
H  4.4994201660 0.7608300447 1.5401500463
H  5.4563903809 3.0995502472 0.1830100119
H  4.6081399918 3.0864202976 1.7423000336
H  3.2026703358 4.4201302528 -0.0938500091
H  1.4244600534 2.6188902855 -0.7216400504
