17

C  1.2291800976 0.3722800314 -0.1465500146
C  2.7234501839 0.3557600081 -0.0920800120
N  3.3995401859 1.4549502134 -0.1340600103
O  4.7670502663 1.1450501680 -0.0547900051
C  5.5070199966 2.3685402870 -0.0096800001
C  6.9961705208 2.0303001404 0.0749000013
N  7.8475608826 3.2197103500 0.1146200076
H  0.8984900713 -0.2344800234 -0.9935001135
H  0.8519101143 1.3923300505 -0.2552000284
H  0.8374400735 -0.0681300089 0.7735400796
H  3.2113604546 -0.6314000487 -0.0065700002
H  5.1954007149 2.9481801987 0.8678200841
H  5.2976603508 2.9499101639 -0.9160500765
H  7.2797403336 1.4057600498 -0.7801200151
H  7.1803102493 1.4247001410 0.9693300724
H  7.7285404205 3.7541003227 -0.7458900213
H  8.8251705170 2.9306004047 0.1364600062
