16

C  0.9876500368 -0.4184500575 -0.1176700071
C  2.4684402943 -0.6601500511 -0.0025900002
O  2.9403102398 -1.7824300528 0.1499100029
N  3.2440903187 0.4713100195 -0.0587400049
C  4.6993403435 0.4238500297 -0.0136300009
C  5.2477502823 0.0823500082 1.3762700558
O  5.1644701958 -1.3092300892 1.6646701097
H  0.7576300502 0.6404899955 -0.2626700103
H  0.4992200136 -0.7596400976 0.7986200452
H  0.6013100147 -0.9779400826 -0.9738100767
H  2.7971503735 1.3774200678 -0.1227300093
H  5.0489802361 1.4153600931 -0.3173100054
H  5.0352501869 -0.3152800202 -0.7492000461
H  4.7151207924 0.6318200231 2.1591000557
H  6.3070902824 0.3525100350 1.4279800653
H  4.3601603508 -1.6604100466 1.2227201462
