18

N  1.2785100937 0.1203400120 0.4686200321
C  2.6032900810 0.2331100106 -0.1398200095
C  2.5529100895 -0.3207000196 -1.5708200932
C  3.9175002575 -0.3187200129 -2.2538602352
O  3.8154604435 -0.8974800706 -3.5512201786
C  3.0009202957 1.6799501181 -0.0989600047
C  4.0874400139 2.1534399986 0.5264300704
H  1.3319700956 0.4463900328 1.4332201481
H  1.0065500736 -0.8595300317 0.5169200301
H  3.3028903008 -0.3716900051 0.4506800473
H  1.8426702023 0.2458400279 -2.1884801388
H  2.1704702377 -1.3504700661 -1.5579200983
H  4.6497406960 -0.8949400783 -1.6788601875
H  4.3016800880 0.6978100538 -2.3789100647
H  3.4564702511 -1.7950202227 -3.4488103390
H  2.3486402035 2.3800802231 -0.6193300486
H  4.7706503868 1.5029600859 1.0630600452
H  4.3117504120 3.2160201073 0.5140800476
