16

C  0.9787700772 0.0516800061 -0.5741200447
C  2.1628601551 -0.0869500116 0.3347300291
C  2.6020603180 -1.4562700987 0.9944700599
C  3.9307904243 -0.6038100719 1.0363000631
N  3.5111103058 -0.2230900228 -0.3917800486
C  3.6331102848 0.6266600490 1.8089301586
C  2.4327802658 0.9814801216 1.3347800970
H  0.0427600034 0.0093200002 -0.0063900002
H  0.9458800554 -0.7546300292 -1.3155001402
H  0.9954700470 1.0024200678 -1.1190500259
H  2.6069302559 -2.3400802612 0.3447600007
H  2.1480300426 -1.7141600847 1.9561700821
H  4.8966703415 -1.0908601284 1.1604701281
H  3.8987202644 0.6635600328 -0.7102100849
H  4.2356600761 1.1027200222 2.5641202927
H  1.8130201101 1.8190400600 1.6086001396
