17

C  2.5633001328 -1.2150800228 -0.3839700222
N  1.9545201063 0.0264500026 0.0342900045
C  2.6294500828 1.2275900841 -0.0212600008
C  1.7917201519 2.4821400642 0.1427200139
N  3.9202003479 1.2781701088 -0.2005600035
O  4.3888301849 2.5994002819 -0.2237600237
C  5.8021006584 2.5696201324 -0.3757600188
H  1.8894300461 -2.0480902195 -0.1632300168
H  3.5035803318 -1.3944901228 0.1465500146
H  2.7544600964 -1.2052600384 -1.4610900879
H  0.9458200932 0.0613000058 -0.0511800013
H  0.7304800153 2.2368402481 0.2447200269
H  1.9152702093 3.1262700558 -0.7329300642
H  2.1117401123 3.0211801529 1.0392800570
H  6.1655702591 3.5989003181 -0.4291400313
H  6.0748100281 2.0512101650 -1.2997200489
H  6.2635903358 2.0764303207 0.4847800434
