18

C  2.3705301285 2.9518902302 -0.7605400681
C  2.7884602547 1.6831401587 -0.6781800389
C  3.3813402653 1.0704501867 0.5576000214
C  4.7987003326 0.6136400700 0.2559800148
C  5.9066801071 1.6895601749 0.2028000206
N  6.8015003204 0.7440400720 0.9140000939
C  5.5996503830 0.0713700056 1.4600701332
H  1.9390501976 3.3362202644 -1.6803700924
H  2.4436001778 3.6348903179 0.0803500041
H  2.6815803051 1.0375200510 -1.5483801365
H  2.7667801380 0.2116700262 0.8501600623
H  3.3662302494 1.7769701481 1.3959101439
H  4.8420205116 -0.0798000023 -0.5982700586
H  5.7018804550 2.6015403271 0.7762600780
H  6.2441501617 1.9733701944 -0.7981700897
H  7.3359308243 0.1508300006 0.2781900167
H  5.6739902496 -1.0180801153 1.5254200697
H  5.2949705124 0.4604900181 2.4388999939
