16

C  0.8933600783 -0.1738500148 0.0945400074
C  2.4101002216 -0.0478200056 0.0443000011
O  2.9205701351 -0.9293100834 -0.9552600980
C  2.9140303135 1.3880400658 -0.1901600212
C  2.4453001022 2.0217502117 -1.4774200916
C  3.2682301998 2.4104402065 -2.4608602524
H  0.4656900465 0.4809600413 0.8605400920
H  0.6095100045 -1.2069500685 0.3243800402
H  0.4342900217 0.0610600039 -0.8713500500
H  2.8145301342 -0.3963400424 1.0014201403
H  2.6717302799 -0.5617600679 -1.8217101097
H  4.0116801262 1.3759300709 -0.1701400131
H  2.5872201920 2.0256600380 0.6404700279
H  1.3776500225 2.1892299652 -1.5905700922
H  4.3441205025 2.2825002670 -2.3904802799
H  2.8787503242 2.8770101070 -3.3606503010
