18

C  1.4341901541 0.3700800240 -0.6430400610
O  2.8530602455 0.4512700438 -0.6292700171
C  3.3116202354 1.4540200233 0.2815300226
C  4.8337001801 1.4834500551 0.2321300209
C  5.4830703735 2.1341400146 -1.0101400614
C  6.4732203484 2.7366302013 -0.0012400001
N  5.4236502647 2.5957601070 1.0356301069
H  1.1414101124 -0.4237800539 -1.3353000879
H  1.0006301403 1.3132900000 -0.9894000888
H  1.0534900427 0.1228200123 0.3527800143
H  2.9741001129 1.1991901398 1.2933100462
H  2.8858301640 2.4254503250 0.0010300002
H  5.2721500397 0.5074900389 0.4841200411
H  4.8617300987 2.8791604042 -1.5218402147
H  5.9064502716 1.4488800764 -1.7484601736
H  7.3596005440 2.1183602810 0.1823000163
H  6.7879805565 3.7643203735 -0.1995600164
H  5.7726302147 2.3159000874 1.9511702061
