13

N  1.0607700348 -0.3014500141 -0.1136000082
C  2.4069802761 -0.0397600047 -0.0752000064
C  3.0535202026 1.1379899979 0.0000000000
C  2.3600101471 2.4691600800 0.0163400006
O  2.3601601124 3.0100800991 1.3313400745
C  4.4595203400 1.1379899979 0.0000000000
N  5.6105303764 1.1379899979 0.0000000000
H  0.7935900688 -1.2299801111 0.2121900171
H  0.4375800490 0.4314300418 0.2149400115
H  2.9849803448 -0.9656800628 -0.1263900101
H  1.3217900991 2.4051902294 -0.3232800066
H  2.8648202419 3.1799101830 -0.6471400261
H  2.0011801720 2.3339002132 1.9305901527
