14

O  1.1251100302 0.9870900512 1.3870100975
N  2.5114700794 0.8137700558 1.3185501099
C  2.9193203449 1.1929600239 0.1505200118
C  4.3769803047 1.1499601603 -0.2106100172
C  4.9666905403 2.5214803219 -0.2031100094
C  6.0086503029 2.9357802868 -1.2072800398
O  4.6314902306 3.3184602261 -1.3467200994
H  0.9225401282 0.7131300569 2.3007802963
H  2.2255699635 1.5910700560 -0.6110600233
H  4.4612402916 0.6842000484 -1.1987000704
H  4.9125204086 0.5195200443 0.5069600344
H  4.9580802917 2.9934101105 0.7713900805
H  6.3952307701 2.2024202347 -1.9039701223
H  6.7131109238 3.7098901272 -0.9275100827
