19

C  1.0487700701 0.0890800059 -0.0851100087
C  2.5379502773 0.0290300008 -0.0263200011
C  3.3660302162 -0.7147100568 -1.0561201572
C  2.7526700497 -1.4399900436 -2.2054102421
C  3.4356102943 0.7977900505 -0.9788001180
C  2.8992702961 1.6774401665 -2.0634901524
O  4.6368699074 1.3289802074 -0.3924100101
H  0.6836900115 0.8699600697 0.5883000493
H  0.6272400618 -0.8640900850 0.2466700226
H  0.6560900211 0.2998800278 -1.0811300278
H  2.8617303371 -0.0551600046 1.0069900751
H  4.2264599800 -1.2672899961 -0.6900500655
H  1.8500001431 -0.9633501172 -2.5947701931
H  2.4851701260 -2.4565701485 -1.9005000591
H  3.4740202427 -1.5141100883 -3.0256602764
H  2.0071201324 1.2793900967 -2.5525403023
H  3.6609201431 1.8214901686 -2.8369002342
H  2.6435103416 2.6607801914 -1.6549201012
H  4.9842500687 0.7613600492 0.3160400391
