21

C  1.0966701508 -0.2370700091 0.1928000152
C  2.6103501320 -0.1529500186 0.0602100044
C  3.1716902256 1.2743301392 0.2092800140
C  2.8014702797 1.9642001390 1.5409600735
C  3.2810902596 1.2475601435 2.7955701351
C  4.6901502609 1.2520501614 -0.0354000032
O  5.2396607399 2.5614702702 0.0211400017
H  0.7564400434 -1.2520401478 -0.0374100022
H  0.6019300818 0.4509200454 -0.4999600649
H  0.7678400874 -0.0037900002 1.2097201347
H  2.8844902515 -0.5375599861 -0.9304100871
H  3.0744903088 -0.8266200423 0.7897800207
H  2.7277500629 1.8943401575 -0.5824200511
H  1.7131501436 2.0829801559 1.5996201038
H  3.2064802647 2.9837002754 1.5471501350
H  2.8500602245 0.2458700240 2.8774302006
H  2.9762203693 1.8107501268 3.6838102341
H  4.3709402084 1.1609700918 2.8181500435
H  4.9169006348 0.8365001082 -1.0234900713
H  5.2073903084 0.6349800229 0.7057300210
H  4.7857003212 3.0979201794 -0.6517800689
