15

C  0.8203000426 0.1708900183 -0.0723300055
C  2.2891600132 0.1678000242 -0.3478300273
C  3.1749303341 0.9285000563 0.3158300221
C  4.6112799644 0.9667801261 0.0913900062
C  5.3964104652 1.7722301483 0.8230700493
C  5.2196002007 0.1501400024 -0.9110500813
C  5.7373003960 -0.5324000120 -1.7508602142
H  0.4941000342 -0.8323900700 0.2182000279
H  0.2732500136 0.4631600380 -0.9738200903
H  0.5494599938 0.8635800481 0.7306800485
H  2.6170902252 -0.5029200315 -1.1383600235
H  2.8023402691 1.5859001875 1.1003301144
H  4.9964208603 2.4165802002 1.5987200737
H  6.4703307152 1.8092101812 0.6645100713
H  6.1966605186 -1.1389400959 -2.4970102310
