15

C  0.9913901091 0.0131200012 -0.0042400006
N  2.4356901646 -0.0149000008 0.0008000000
C  3.2335901260 1.1032601595 -0.0012500001
C  4.5462903976 0.6877900362 0.0075100008
C  4.5387802124 -0.7278900146 0.0155000007
C  3.2248103619 -1.1399700642 0.0116800005
N  2.7190401554 -2.3848099709 0.0202300008
H  0.6430200338 1.0492700338 0.0040700003
H  0.6308200359 -0.5033900142 0.8891400695
H  0.6387800574 -0.4867400229 -0.9102000594
H  2.8078904152 2.0978500843 -0.0073800008
H  5.4149804115 1.3328800201 0.0094700009
H  5.4038105011 -1.3762700558 0.0247500017
H  1.7303301096 -2.5976102352 -0.0489300042
H  3.3270702362 -3.1979904175 -0.0224300027
