15

C  0.7812200785 0.0185300019 0.0946300030
C  2.2655200958 0.0034800004 0.2662500143
C  3.0899901390 0.9383500218 -0.2390300035
C  4.5884704590 0.9965900779 -0.1013700068
O  5.0829100609 -0.1576100141 0.5627300739
C  5.2084803581 1.0910401344 -1.4308100939
C  5.7219905853 1.1650500298 -2.5153400898
H  0.4559000134 -0.8956400752 -0.4111700356
H  0.4406000376 0.8749101162 -0.4957700372
H  0.2936600447 0.0629000068 1.0732400417
H  2.6683802605 -0.8193300962 0.8531300426
H  2.6547303200 1.7647101879 -0.7995300889
H  4.8568601608 1.8696501255 0.5023300648
H  4.9415202141 -0.8968100548 -0.0520400032
H  6.1801404953 1.2303801775 -3.4748804569
