19

C  0.8922200799 -0.0394000039 -0.2155000120
C  2.3719401360 0.0707700104 0.0418700017
C  2.7584600449 -0.0268200021 1.4934101105
N  3.2887103558 -0.5415400267 -0.9307600260
C  3.1906602383 0.9223300815 -0.9207100868
C  4.3792004585 1.7330302000 -0.5064900517
N  5.3009104729 1.7851301432 -1.6387200356
H  0.6477200389 0.0456200019 -1.2808600664
H  0.3558500409 0.7560100555 0.3138600290
H  0.5118900537 -1.0041900873 0.1383700073
H  3.8301303387 -0.2015900165 1.6353901625
H  2.2314801216 -0.8579700589 1.9752801657
H  2.4891402721 0.8958300948 2.0181901455
H  2.7846801281 -0.9205101132 -1.7335500717
H  2.6779501438 1.3751500845 -1.7637801170
H  4.8996505737 1.3062800169 0.3565100431
H  4.0629801750 2.7472102642 -0.2426100224
H  5.5340404510 0.8197600245 -1.8812701702
H  6.1730303764 2.2121202946 -1.3330700397
