17

C  1.8438000679 0.5204900503 1.3607301712
C  2.2613403797 -0.0361299999 0.0216600019
C  3.1263403893 -1.2816901207 0.0267500021
C  2.2447702885 -2.5213801861 -0.0597600080
N  3.0541300774 -3.7375404835 0.0044800001
N  1.8233700991 0.5588500500 -1.0491900444
O  2.2600800991 -0.0796500072 -2.2121500969
H  1.2450700998 1.4264800549 1.2340101004
H  2.7343702316 0.7611900568 1.9474700689
H  1.2516000271 -0.2266700119 1.8954001665
H  3.7122502327 -1.2922000885 0.9535400867
H  3.8421404362 -1.2449901104 -0.8004900813
H  1.6649401188 -2.5196104050 -0.9898100495
H  1.5250701904 -2.5329601765 0.7663700581
H  3.6859903336 -3.7628602982 -0.7960900068
H  2.4453501701 -4.5488801003 -0.0962900072
H  1.8939301968 0.4913600385 -2.9135503769
