13

O  1.4946601391 1.5172300339 0.2019200176
C  2.6143403053 1.9703601599 -0.0312900022
C  3.4913501740 1.4847300053 -1.1614601612
N  4.8663606644 1.3802001476 -0.6562100649
C  5.2993402481 0.0066700005 -0.4081500471
C  5.7758803368 0.7641000152 -1.6191101074
H  2.9967002869 2.8366503716 0.5355700850
H  3.4464902878 2.2388100624 -1.9543300867
H  3.0815701485 0.5447000265 -1.5501501560
H  4.5945000648 -0.8044700623 -0.5474700332
H  5.9956502914 -0.1295000166 0.4110600054
H  6.7914104462 1.1419600248 -1.6154500246
H  5.3917703629 0.4823500216 -2.5921301842
