17

C  0.9476500750 0.0209700018 -0.3107800186
C  2.3900501728 -0.2099100202 0.0480400026
C  2.7195203304 -1.6116900444 0.4793400466
C  3.2957601547 0.7854100466 -0.0226100013
C  4.7275004387 0.7202100754 0.2903700173
C  5.6720700264 0.1709500104 -0.7492600679
O  5.6857700348 1.5542100668 -0.3826600313
H  0.7565900683 1.0544600487 -0.6182800531
H  0.3040800393 -0.1948900074 0.5482900143
H  0.6539600492 -0.6322600245 -1.1389000416
H  2.1239902973 -1.8862901926 1.3562600613
H  3.7729804516 -1.7393100262 0.7445901036
H  2.4938702583 -2.3170502186 -0.3272300065
H  2.9568102360 1.7692500353 -0.3450500369
H  4.9427003860 0.5017800331 1.3316301107
H  5.2902903557 -0.0803600028 -1.7308801413
H  6.4969506264 -0.4448200166 -0.4144400358
