18

C  0.9410400987 0.0709600076 -0.2101300061
C  2.4087700844 -0.0630300045 0.0146600017
C  3.2949302197 -0.8955500126 -0.8721000552
N  2.7542302608 -1.6337300539 -2.0139701366
C  3.3807902336 0.6144700646 -0.9211000204
C  4.5496206284 1.2862401009 -0.3425300419
C  5.8003807068 1.2186300755 -0.8169100881
H  0.5541700125 0.9278700948 0.3521800339
H  0.4212200344 -0.8265100121 0.1418100148
H  0.6864200830 0.2240400165 -1.2643501759
H  2.6341702938 -0.0823300034 1.0760900974
H  4.1078801155 -1.4190001488 -0.3706600368
H  2.0879900455 -1.0749500990 -2.5438101292
H  2.2462601662 -2.4583001137 -1.6965301037
H  2.9775302410 1.1131500006 -1.7969501019
H  4.3691802025 1.9027200937 0.5353300571
H  6.0353407860 0.6240100861 -1.6947600842
H  6.6112608910 1.7542401552 -0.3343200088
