11

C  0.9763600230 0.0050200000 -0.0066800006
C  2.4772400856 -0.0064900005 -0.0025900002
C  3.1625101566 -1.1597501040 0.0052700005
C  3.1927702427 1.2276500463 -0.0040900004
C  3.7922801971 2.2668402195 -0.0040400005
H  0.5822600722 1.0268300772 0.0200900007
H  0.5833300352 -0.5231200457 0.8686100841
H  0.5899400115 -0.4754700363 -0.9117900729
H  2.6525502205 -2.1176302433 0.0072100004
H  4.2483701706 -1.1771299839 0.0090600001
H  4.3262500763 3.1900801659 -0.0040100003
