16

C  3.0556201935 -1.1801100969 -0.4751700461
C  2.4486801624 0.0628000051 0.1561399996
C  3.4471802711 1.1740500927 0.2549600303
N  3.6809003353 2.0587301254 -0.8791100979
C  2.9872503281 2.6137800217 0.2849100232
C  3.6943802834 3.5453302860 1.1097002029
C  4.2861604691 4.3294901848 1.8018701077
H  2.3154501915 -1.9848601818 -0.5210200548
H  3.9133603573 -1.5362601280 0.1049300060
H  3.4019901752 -0.9744400382 -1.4933202267
H  2.0935401917 -0.1822200119 1.1636501551
H  1.5708701611 0.3699200451 -0.4251800478
H  4.3218903542 0.9032500386 0.8366900682
H  3.0179703236 1.8876501322 -1.6348800659
H  1.9298801422 2.8147301674 0.1442500055
H  4.8185400963 5.0240006447 2.4079701900
