16

C  2.6481301785 -1.2414602041 0.5299000740
C  2.2406301498 -0.0235200021 0.1500400007
C  3.0665102005 1.1756300926 0.0391600057
C  2.4739801884 2.3285000324 -0.3206200302
C  4.5055103302 1.0638600588 0.3609700203
C  5.4432301521 0.4884200096 -0.6729700565
N  5.4670205116 1.9072000980 -0.3592000306
H  1.9393701553 -2.0630002022 0.5763400793
H  3.6735603809 -1.4644100666 0.8021400571
H  1.1872100830 0.0934400037 -0.1014000103
H  1.4159700871 2.3994002342 -0.5469600558
H  3.0551202297 3.2422304153 -0.4089200199
H  4.7273406982 0.8989400268 1.4104200602
H  5.0509300232 0.2259200215 -1.6481602192
H  6.2842907906 -0.1032200083 -0.3348500133
H  6.2527203560 2.1389300823 0.2489600182
