15

C  -1.0276100636 -0.0451600030 1.1318701506
C  -0.6143600345 1.0065600872 0.0679600090
C  0.9008000493 1.2858800888 -0.0069700009
C  1.6417901516 -0.0360500030 -0.0197700020
C  0.9371100664 -1.1815100908 -0.0054600006
C  -0.5466000438 -1.0130701065 0.0137100015
O  -1.0028300285 0.0094200000 -0.9624100924
H  -0.4702100158 -0.0414800011 2.0718901157
H  -2.1015801430 -0.0877600089 1.3394101858
H  -1.2452100515 1.8994101286 0.0297500025
H  1.1369500160 1.8500601053 -0.9152100682
H  1.2171400785 1.8770201206 0.8587700725
H  2.7259001732 -0.0371500030 -0.0519800037
H  1.3894301653 -2.1644501686 -0.0260200016
H  -1.1070700884 -1.9475001097 -0.0762600079
