18

C  1.1124601364 0.0153400013 0.0226100013
N  2.5672302246 0.0055000004 -0.0374000035
C  3.1651902199 1.0076501369 -1.0024800301
C  2.7889201641 0.0309000015 -2.1536900997
C  3.1641201973 -0.9705100656 -1.0290900469
C  4.6727705002 -0.7532200813 -0.8648101091
C  4.6737904549 0.7864500284 -0.8452700377
H  0.7996600866 0.7552000284 0.7666900754
H  0.7487900853 -0.9575201273 0.3687400520
H  0.5838600397 0.2630900145 -0.9010601044
H  2.7654399872 2.0216701031 -1.0050300360
H  3.4296402931 0.0420700051 -3.0428802967
H  1.7551901340 0.0239300020 -2.5086803436
H  2.7659602165 -1.9840800762 -1.0564700365
H  5.0566601753 -1.1756801605 0.0701900050
H  5.2476501465 -1.1559001207 -1.7047002316
H  5.2471704483 1.2090101242 -1.6761600971
H  5.0587506294 1.1850701571 0.0986000076
