17

N  1.8445601463 0.5695300102 2.7485203743
C  2.4983501434 0.7547701001 1.6565501690
N  3.5772402287 0.0100900000 1.3130701780
C  4.5751800537 0.6369100809 0.5127900243
C  5.5649104118 1.4991501570 1.3311401606
C  6.6873202324 0.9123100638 0.4496100247
C  5.7662901878 -0.3022400439 0.2086800188
H  1.0660300255 1.2359901667 2.7961101532
H  2.2123601437 1.5326201916 0.9269900918
H  3.9013001919 -0.5720100403 2.0800302029
H  4.1734204292 1.1286600828 -0.3816200495
H  5.6551804543 1.2284001112 2.3900201321
H  5.4260702133 2.5808403492 1.2531100512
H  6.8910408020 1.4982100725 -0.4539000392
H  7.6304001808 0.7003400326 0.9592200518
H  5.7952604294 -0.7173700333 -0.8024700284
H  5.9195904732 -1.1145600080 0.9293800592
