19

N  0.9976201057 0.0128000006 -0.0069700009
C  2.4496200085 0.0123700006 0.0458900034
C  3.0117204189 1.1207101345 0.9293100834
C  4.4462604523 0.6573500633 1.1402000189
C  4.2992501259 -0.8457500339 1.3917200565
N  5.4907402992 -1.5840001106 0.9927700758
C  3.0269002914 -1.2756800652 0.6412700415
H  0.6729800701 -0.7297200561 -0.6248400211
H  0.6670500636 0.8892200589 -0.4098400176
H  2.8391802311 0.1362000108 -0.9733700752
H  2.4851603508 1.1750401258 1.8901901245
H  2.9605302811 2.1042802334 0.4520400167
H  5.0350599289 0.8579900861 0.2356200218
H  4.9304103851 1.1717801094 1.9760801792
H  4.1435503960 -1.0101400614 2.4649300575
H  5.6561303139 -1.4681501389 -0.0065400004
H  5.3362402916 -2.5817801952 1.1375001669
H  3.2154402733 -2.0154001713 -0.1460300237
H  2.3333001137 -1.7426102161 1.3521301746
