14

C  0.9840900898 -0.5218500495 0.2000600100
C  2.4899601936 -0.4562300444 0.0329900049
C  2.9289202690 0.9722601175 -0.1277700067
N  3.7138202190 1.5221400261 0.7384400964
O  3.9683704376 2.8500602245 0.3513200283
C  4.8391904831 3.4375503063 1.2289601564
O  5.3716902733 2.9585702419 2.2181701660
H  0.6579200625 -1.5595301390 0.3167900145
H  0.4735800326 -0.0978800133 -0.6705999970
H  0.6622600555 0.0421200059 1.0812300444
H  2.7914102077 -1.0052300692 -0.8651000857
H  2.9891703129 -0.9045700431 0.8982700706
H  2.5548102856 1.5181200504 -1.0113101006
H  5.0035099983 4.4726505280 0.8917500377
