13

C  0.9626001120 0.0481100045 0.0095500005
C  2.4404001236 0.0029500001 -0.0521000028
C  3.3053002357 1.0253700018 -0.1023000032
N  4.6541900635 0.7760700583 -0.1729300022
S  4.9301300049 -0.8653500676 0.0084200008
C  3.2118501663 -1.2555401325 -0.0124200005
N  2.7889902592 -2.4663901329 0.0209800024
H  0.5932500362 1.0788100958 0.0238500014
H  0.5989699960 -0.4501200318 0.9137200713
H  0.5272500515 -0.4521800280 -0.8611300588
H  3.0158302784 2.0705802441 -0.0953300074
H  5.2521505356 1.4454201460 0.3079000115
H  1.7675200701 -2.4891500473 0.0029500001
