17

C  1.0132801533 0.0124900006 -0.0635800064
C  2.5038399696 0.0284700021 -0.0314900018
C  3.3434603214 -0.7346000075 -1.0424100161
C  2.7376101017 -1.5449301004 -2.1360301971
N  3.2271003723 0.7198500633 -1.0952399969
C  4.4275803566 1.4098401070 -0.6333700418
H  0.6174000502 0.7740600705 0.6155600548
H  0.6403800845 -0.9614500999 0.2675200105
H  0.6093700528 0.2153500170 -1.0604801178
H  2.8797502518 0.0884700045 0.9849800467
H  4.2766404152 -1.1672000885 -0.6953300834
H  1.8691701889 -1.0603899956 -2.5941901207
H  2.4218602180 -2.5188901424 -1.7502101660
H  3.4758701324 -1.7174100876 -2.9255902767
H  4.1814002991 2.4501299858 -0.3977200389
H  5.1778302193 1.4192401171 -1.4309101105
H  4.8896303177 0.9658700824 0.2567700148
