17

C  2.5401701927 -1.2018001080 -0.2102400064
C  3.8990402222 -0.5433600545 -0.0760000050
O  3.7011902332 0.8772800565 0.0035200003
C  4.7574205399 1.7147700787 0.0831200033
N  5.9851703644 1.3413602114 0.1118700132
N  4.3354001045 2.9997303486 0.1167800128
C  5.2166604996 4.1024804115 -0.1715300083
H  2.6386404037 -2.2882602215 -0.2843400240
H  2.0189502239 -0.8321300745 -1.0992801189
H  1.9087301493 -0.9617400765 0.6516200304
H  4.5112605095 -0.7807400823 -0.9533000588
H  4.3940501213 -0.8951700926 0.8352800608
H  6.0679206848 0.3291099966 0.0846000090
H  3.3675303459 3.1182901859 -0.1507399976
H  6.0887608528 4.0955405235 0.4902300239
H  4.6873703003 5.0475802422 -0.0188500006
H  5.5563607216 4.0649204254 -1.2101700306
