11

O  1.2123100758 -0.2989100218 0.7236200571
C  2.1694402695 -0.0362600014 -0.0002100000
C  2.9444601536 1.2512100935 0.0825500041
C  4.3883504868 1.0007200241 0.0346000008
C  5.5725502968 0.8025400639 -0.0019700001
C  7.0821704865 0.5509400964 -0.0457700007
C  8.2655706406 0.3544900417 -0.0773800015
H  2.4525802135 -0.7177300453 -0.8213400841
H  2.6744601727 1.7682201862 1.0089000463
H  2.6392700672 1.8772901297 -0.7620300055
H  9.3159599304 0.1807200164 -0.1029100046
