12

C  1.0126401186 -0.0053100004 -0.0070000007
N  2.4541501999 0.0332400016 0.0005900000
C  3.2484703064 1.1431001425 0.0034000003
C  4.5439701080 0.6813700199 0.0106100012
C  4.4225702286 -0.7202000618 0.0115100015
N  3.1484301090 -1.1195601225 0.0052500004
H  0.6209600568 1.0149301291 0.0004100000
H  0.6769200563 -0.5400800705 0.8851500750
H  0.6863600612 -0.5238100290 -0.9121300578
H  2.8382101059 2.1429700851 0.0000900000
H  5.4488501549 1.2715801001 0.0146000013
H  5.2070302963 -1.4658601284 0.0164000001
