13

O  2.5057401657 -0.3652500212 -0.7519300580
C  2.7693603039 0.6218400002 -1.4310401678
N  3.6187002659 1.6459801197 -1.0954700708
C  4.1618604660 1.5708401203 0.0743100047
N  5.0474805832 2.4558002949 0.6719300747
C  6.0414705276 3.0964200497 -0.2031300217
C  4.8932003975 3.8798701763 0.3342100382
H  2.3011102676 0.7442900538 -2.4225802422
H  3.9588403702 0.7340800166 0.7685101032
H  6.0287404060 2.7777903080 -1.2361100912
H  7.0082902908 3.1998002529 0.2678900361
H  5.0560007095 4.5306906700 1.1812601089
H  4.0658302307 4.1206302643 -0.3188300431
