15

N  1.1660701036 0.0895200074 0.4264700115
C  2.4096202850 0.0397000052 0.0814600065
C  3.0564503670 -1.3223100901 -0.0715700015
C  4.0871200562 -1.2986800671 -1.1887501478
C  4.9045805931 -0.0197100025 -1.1046401262
O  4.0170102119 1.0980501175 -1.2315301895
N  3.2044401169 1.1529802084 -0.0821900070
H  0.8583101034 1.0591801405 0.5214600563
H  2.2965002060 -2.0871500969 -0.2617100179
H  3.5415203571 -1.5614901781 0.8825600743
H  4.7330803871 -2.1807603836 -1.1351001263
H  3.5605401993 -1.3241600990 -2.1510102749
H  5.4745101929 0.0509300046 -0.1701500118
H  5.6148505211 0.0265700035 -1.9358001947
H  2.7009902000 2.0349001884 -0.0463500060
