13

N  0.9866200686 -0.0752400011 0.1348900199
C  2.3192999363 0.0754500031 0.0763400048
C  3.1384603977 1.1781500578 -0.0325200036
N  2.7495002747 2.4682600498 -0.0781600028
C  4.4625201225 0.6975300312 -0.0804200023
C  4.3656206131 -0.6737200618 0.0109600006
O  3.0635802746 -1.0592200756 0.1066600084
H  0.4177900553 0.6534400582 -0.2803300321
H  0.6377900839 -1.0096000433 -0.0509600043
H  3.4236502647 3.2109203339 0.0774800032
H  1.8170900345 2.7100801468 0.2446700186
H  5.3763303757 1.2654500008 -0.1671000123
H  5.0886902809 -1.4764300585 0.0206900015
