17

C  2.6433401108 -0.8752500415 0.1879300177
O  3.9840700626 -0.4085600376 0.1397100091
C  4.0420203209 1.0204701424 0.0991200060
C  5.4700703621 1.5204100609 -0.0315000005
C  6.5290608406 0.6921300888 -0.1070600078
C  5.7068204880 2.9599702358 -0.0808100030
C  4.7800607681 3.9256403446 -0.0111700017
H  2.6606903076 -1.9667000771 0.2507900298
H  2.1058402061 -0.5872600079 -0.7208700776
H  2.1292102337 -0.4825600386 1.0706700087
H  3.6002302170 1.4100800753 1.0243600607
H  3.4551503658 1.3714201450 -0.7585500479
H  6.4025206566 -0.3863600194 -0.0754700005
H  7.5474705696 1.0535800457 -0.2018700242
H  6.7453203201 3.2745404243 -0.1847300231
H  3.7201404572 3.7274901867 0.0939000025
H  5.0792303085 4.9686903954 -0.0590300038
