12

O  0.9412000775 -0.0921900123 0.0061700004
C  2.2606301308 0.0292600021 0.0012900000
C  3.0770802498 1.1304301023 0.0001700000
O  2.6012601852 2.3840701580 0.0043300004
C  4.4179902077 0.7000700831 -0.0058300006
C  4.3849101067 -0.6802400351 -0.0082400013
N  3.0682301521 -1.0755200386 -0.0038700004
H  0.6100200415 0.8275700808 0.0091300011
H  3.3435404301 3.0125801563 0.0026200004
H  5.3121604919 1.3077101707 -0.0081700003
H  5.1790904999 -1.4153201580 -0.0126500009
H  2.7285401821 -2.0270001888 -0.0043100002
