13

C  0.9799301028 -0.0906600058 -0.0011000001
C  2.4894301891 0.0801900029 0.0098200012
C  2.8715701103 1.5087401867 -0.0015500002
N  3.1216201782 2.3202002048 1.0050201416
N  3.4280800819 3.5448002815 0.4469500184
C  3.3413403034 3.3849604130 -0.8516300917
O  2.9930102825 2.1217200756 -1.2219101191
H  0.7174800634 -1.1532000303 0.0135600017
H  0.5367300510 0.3568400145 -0.8976700902
H  0.5210900307 0.3853600323 0.8724600673
H  2.9236702919 -0.4284500182 -0.8581001163
H  2.9042601585 -0.3993200064 0.9032400846
H  3.5061903000 4.1059103012 -1.6365300417
