18

C  1.0271000862 -0.2121200264 0.1126300097
C  2.5026001930 0.0017300001 -0.2385800183
C  2.8145101070 -0.9671500921 -1.3737500906
O  3.6236202717 -1.8873101473 -1.2787801027
N  2.8119902611 1.3890200853 -0.6787700653
C  2.4322001934 2.3790402412 0.3365100324
C  4.2494101524 1.5373800993 -0.9621300697
H  0.7530000210 0.3037200272 1.0380700827
H  0.8132600188 -1.2769800425 0.2587600350
H  0.3696900308 0.1426900178 -0.6893400550
H  3.1186501980 -0.2758800089 0.6265200973
H  2.2574501038 -0.7992700338 -2.3123402596
H  1.3467701674 2.4124400616 0.4707100391
H  2.7215101719 3.3875603676 0.0194400009
H  2.9020502567 2.1766600609 1.3054001331
H  4.5618100166 0.8923600912 -1.7894001007
H  4.8673100471 1.3071701527 -0.0868800059
H  4.4725503922 2.5619003773 -1.2806801796
