14

C  3.1662201881 -0.9106800556 0.6649800539
O  2.9873802662 0.3476200402 1.3075000048
C  3.1916401386 1.4463400841 0.4227300286
C  2.6534402370 2.6963303089 1.1030701399
C  4.6689200401 1.6529000998 0.1302000135
O  5.1486907005 1.6184900999 -0.9995000958
H  2.9344801903 -1.6977602243 1.3876100779
H  4.2030701637 -1.0351800919 0.3396600187
H  2.4869601727 -1.0098700523 -0.1869000196
H  2.6520202160 1.2857100964 -0.5180100203
H  3.1494202614 2.8660602570 2.0658903122
H  1.5838401318 2.5880901814 1.3126300573
H  2.8020901680 3.5848903656 0.4811700284
H  5.3083906174 1.8301801682 1.0124500990
