13

C  1.0130200386 -0.3000900149 0.1387600005
C  2.4839601517 -0.0305300020 0.1347700208
C  3.1390202045 1.1379899979 0.0000000000
C  2.4198203087 2.4399101734 -0.1367600113
O  2.9885101318 3.5114002228 -0.3148300052
C  4.5450205803 1.1379899979 0.0000000000
C  5.7351803780 1.1379899979 0.0000000000
H  0.7952200770 -1.1337101460 -0.5380200148
H  0.4055900276 0.5448200107 -0.1911000162
H  0.6902500987 -0.5884500146 1.1442401409
H  3.0843703747 -0.9344400764 0.2487600148
H  1.3240901232 2.4017102718 -0.0608300045
H  6.8002104759 1.1523500681 -0.0022300002
