17

C  1.4389700890 1.6372101307 1.8757700920
O  2.7860100269 1.2681300640 1.6063201427
C  3.2509002686 1.8281801939 0.3787700236
C  4.6839704514 1.3861601353 0.1741900146
C  5.4081406593 2.0241000652 -1.0130500793
O  6.4807205200 2.4928901196 -0.1627500206
C  5.7438502312 2.0972301960 1.0201400518
H  1.1223201752 1.1369500160 2.7947502136
H  0.7818300128 1.3215401173 1.0608800650
H  1.3650801182 2.7199702263 2.0224401951
H  3.1711504459 2.9211201668 0.4196800292
H  2.6259701252 1.4614900351 -0.4434000254
H  4.7917103767 0.2941900194 0.1874100119
H  4.8999705315 2.8612000942 -1.5019102097
H  5.7688307762 1.3207501173 -1.7693201303
H  6.3382205963 1.4452800751 1.6667201519
H  5.4114003181 2.9732501507 1.5848701000
