15

C  0.6319500804 0.5270900130 -0.1657200158
C  2.1004402637 0.1726300120 -0.0069300001
C  2.9939501286 1.3990900517 -0.0403899997
O  2.5711901188 2.5477900505 -0.1685600132
N  4.3459706306 1.1720900536 0.0839600116
N  4.8728904724 -0.0740500093 0.2275600135
C  6.1589102745 -0.1088100076 0.3268600404
H  0.0161500014 -0.3770000339 -0.1358000189
H  0.4507200420 1.0331400633 -1.1199200153
H  0.2991800010 1.1945600510 0.6361900568
H  2.3974301815 -0.5017000437 -0.8174700737
H  2.2458603382 -0.3414400220 0.9493100643
H  4.9416003227 1.9931601286 0.0614100061
H  6.6676506996 -1.0791701078 0.4459300339
H  6.8012003899 0.7873800397 0.2999000251
