14

C  2.7238302231 -0.9317700863 -1.0427000523
N  2.4708201885 -0.0821900070 0.1161900088
C  3.0205602646 1.2754900455 -0.0721700042
C  4.5440201759 1.2953500748 0.0003600000
O  5.2174706459 0.5065400600 0.6553600430
C  5.1997604370 2.3524403572 -0.7436000705
C  5.7423405647 3.2222402096 -1.3682701588
H  2.2458500862 -1.9041701555 -0.8892101049
H  3.7931602001 -1.1070899963 -1.1970301867
H  2.2986600399 -0.4972700477 -1.9532501698
H  2.9345600605 -0.4988000393 0.9293200374
H  2.6492800713 1.9166401625 0.7350300550
H  2.6717901230 1.7004001141 -1.0200700760
H  6.2340707779 3.9894602299 -1.9228801727
