13

C  1.0783101320 -0.0795100033 -0.0048200004
C  2.2774200439 -0.0048200004 0.0205700025
C  3.7027802467 0.0880600065 0.0491800047
N  4.3611602783 -1.0255000591 0.0612600073
N  5.6690402031 -0.6518800855 0.1234500110
C  5.8465504646 0.7478900552 -0.2631400228
C  4.4885306358 1.3433901072 0.0687000081
H  0.0165100023 -0.1592900157 -0.0265300032
H  6.2823905945 -1.2926200628 -0.3834700286
H  6.0439605713 0.8196700811 -1.3386300802
H  6.6620106697 1.2300601006 0.2819800377
H  4.1375503540 2.0582802296 -0.6787300706
H  4.4541201591 1.7792401314 1.0716000795
