13

C  1.0158101320 -0.0264600031 0.0408100039
N  2.4715702534 0.0108500011 0.0189200025
C  2.9607002735 1.3856801987 0.0000000000
C  4.4047007561 1.3856801987 0.0000000000
C  5.5948605537 1.3856801987 0.0000000000
C  7.1289806366 1.3819900751 0.0007400001
N  8.2901506424 1.3853701353 -0.0049900003
H  0.6783600450 -1.0674099922 0.0579600036
H  0.5879000425 0.4514200389 -0.8465200067
H  0.6201699972 0.4621600211 0.9371300936
H  2.8058700562 -0.4737300575 -0.8133700490
H  2.5955801010 1.9260801077 0.8811200857
H  2.5880703926 1.9097301960 -0.8879400492
