12

C  3.2854902744 -1.0320100784 0.5240800381
O  2.4209401608 0.0658800006 0.2600900233
C  3.0075600147 1.2540299892 0.1363900155
C  2.5393903255 2.5220000744 -0.1120900065
N  3.5849702358 3.4126801491 -0.1403600127
C  4.6317300797 2.6527202129 0.0901000053
O  4.3664202690 1.3290801048 0.2692300081
H  2.6722702980 -1.9346401691 0.6002200842
H  3.8109002113 -0.8976200223 1.4758700132
H  3.9993004799 -1.1749800444 -0.2945000231
H  1.5166500807 2.8318603039 -0.2694700062
H  5.6696400642 2.9496703148 0.1540300101
