12

O  0.8085100651 0.4230300188 0.3215200305
N  2.1657903194 0.0849100053 0.3813300133
C  2.8720602989 1.1509101391 0.1925900131
C  4.3450503349 1.1113901138 0.1995500177
C  5.0379300117 2.2385501862 0.0000000000
C  6.4439306259 2.2385501862 0.0000000000
C  7.6340904236 2.2385501862 0.0000000000
H  0.3728400171 -0.4363700151 0.4736900330
H  2.4007401466 2.1352300644 0.0183400027
H  4.8127703667 0.1486800164 0.3699700236
H  4.5361804962 3.1870203018 -0.1678900123
H  8.6994409561 2.2370402813 0.0002700000
