13

C  1.9151202440 -0.9515900612 -0.1099900082
N  3.0524501801 -0.4708000422 0.2647300363
N  3.1621801853 0.8665700555 -0.1012100056
C  4.2879705429 1.3604100943 0.3062500060
C  4.6574401855 2.7880604267 0.0211600028
C  4.8935804367 3.5270001888 1.2683600187
C  5.0873804092 4.1362800598 2.2852201462
H  1.6674801111 -2.0025601387 0.1033000126
H  1.1560701132 -0.3563400209 -0.6457700729
H  5.0256500244 0.7503600717 0.8590300679
H  3.8645403385 3.2647204399 -0.5642700195
H  5.5692806244 2.7784302235 -0.5850200653
H  5.2553200722 4.6775903702 3.1879601479
