15

N  3.7674400806 -0.9348300695 0.8452300429
C  2.7810902596 -0.2074000239 0.0584600046
C  3.0928001404 1.2466400862 -0.0984600112
C  4.2549700737 1.8537300825 0.1975400150
C  4.4053406715 3.3108100891 -0.0045700003
N  5.6674504280 3.7645404339 0.2123200148
O  3.4945502281 4.0563101768 -0.3355200291
H  3.5233802795 -1.9245601892 0.8402600884
H  3.6835403442 -0.6390700340 1.8177502155
H  1.8000601530 -0.3152600229 0.5349700451
H  2.7106602192 -0.6592000723 -0.9369100332
H  2.2774901390 1.8463602066 -0.5013700724
H  5.1019406319 1.2971500158 0.5786300302
H  6.4459409714 3.1672601700 0.4453900456
H  5.8365902901 4.7514705658 0.0712000057
