15

C  0.9707700610 0.1404400170 0.1136300042
C  2.4369602203 -0.0755399987 -0.0849400088
C  3.0417702198 -1.2535101175 -0.2999600172
N  2.4851303101 -2.5082499981 -0.3622400165
C  3.2719502449 1.1610500813 -0.0654100031
N  4.5657901764 1.1822100878 -0.1044600084
O  5.0018606186 2.5123302937 -0.0645000041
H  0.5834500790 0.8391801119 -0.6356000304
H  0.7808500528 0.5602100492 1.1070100069
H  0.3911100328 -0.7829300761 0.0269100014
H  4.1199502945 -1.2912100554 -0.4629500508
H  1.5770901442 -2.5950000286 0.0849300101
H  3.1261901855 -3.2522501945 -0.0933200046
H  2.6995000839 2.1053001881 -0.0059200008
H  5.9712605476 2.4140801430 -0.1119100079
