16

C  0.9853700399 -0.2251500189 0.1207400113
C  2.5012202263 -0.1381600052 0.2136600167
C  2.9779403210 1.3132801056 0.1622800231
N  4.4398603439 1.3721400499 0.2463000268
N  4.9698204994 2.6176903248 0.1957000196
C  6.2573504448 2.6344401836 0.2947100103
H  0.6613300443 -1.2687600851 0.1760000139
H  0.6273100376 0.1920100152 -0.8255400658
H  0.5099200606 0.3227400184 0.9399501085
H  2.9420800209 -0.7104400396 -0.6121500731
H  2.8317201138 -0.6097400188 1.1474701166
H  2.5405201912 1.8754200935 0.9956000447
H  2.6426601410 1.7804400921 -0.7715100646
H  4.8409004211 0.7566300631 -0.4656600356
H  6.7907204628 3.5971901417 0.2624900043
H  6.8756403923 1.7275902033 0.4179400206
