17

C  0.9513301253 0.0224900022 0.3528500497
C  2.2878303528 0.4493500292 -0.2535400391
N  2.3014800549 0.1166900024 -1.6644902229
C  2.5877001286 -1.1229600906 -2.1301400661
N  2.3395302296 -1.5442100763 -3.3162503242
C  2.6039004326 1.9209102392 -0.1697400212
C  1.8316900730 2.9057602882 0.3114800155
H  0.9009600878 0.2759500444 1.4169201851
H  0.8152200580 -1.0607501268 0.2629500031
H  0.1052100062 0.4971100390 -0.1565400213
H  3.0929203033 -0.0867000073 0.2657900155
H  1.7313600779 0.7148100734 -2.2494802475
H  3.0740404129 -1.7874401808 -1.3954800367
H  1.9023902416 -0.7990200520 -3.8615303040
H  3.5932803154 2.1932702065 -0.5405700207
H  0.8370700479 2.7316002846 0.7079900503
H  2.1900300980 3.9314203262 0.3195500374
