19

C  4.1224203110 6.4034705162 1.4193100929
O  5.2690906525 5.7810702324 0.8552500606
C  5.4974203110 6.2131505013 -0.4818800390
O  4.5496702194 5.6860103607 -1.4021701813
C  4.6212205887 4.2681698799 -1.5724802017
C  3.3481402397 3.8524403572 -2.3061602116
C  5.8453307152 3.8651902676 -2.3905999660
H  3.9716002941 5.9952602386 2.4210200310
H  3.2304401398 6.1988601685 0.8219500780
H  4.2794704437 7.4824309349 1.5052101612
H  6.5141105652 5.9296007156 -0.7691400051
H  5.4516806602 7.3069105148 -0.5340000391
H  4.6362504959 3.7678303719 -0.5963400602
H  3.2646403313 4.3700304031 -3.2688701153
H  2.4643001556 4.1301202774 -1.7223401070
H  3.3216903210 2.7735202312 -2.4847400188
H  5.9225301743 4.4670205116 -3.3018403053
H  5.8086905479 2.8062903881 -2.6673901081
H  6.7675704956 4.0242705345 -1.8242701292
