16

C  1.0114600658 -0.2360400110 0.1519700140
C  2.5249001980 -0.0876300037 0.1317400038
C  2.9404602051 1.3587100506 -0.1382100135
C  4.4356803894 1.5039200783 -0.1511100233
C  5.1358704567 1.9223701954 -1.2168400288
C  6.5521302223 2.0548501015 -1.1910800934
N  7.7052607536 2.1646301746 -1.1748200655
H  0.7352000475 -1.2772101164 0.3457100391
H  0.5756000280 0.0579300039 -0.8082200289
H  0.5669200420 0.3850700557 0.9361600876
H  2.9396700859 -0.7481500506 -0.6394300461
H  2.9300603867 -0.4228900373 1.0943200588
H  2.5354201794 2.0135200024 0.6426000595
H  2.5102601051 1.6945301294 -1.0897200108
H  4.9544401169 1.2578901052 0.7752900720
H  4.6393599510 2.1773402691 -2.1465501785
