14

C  2.7348802090 -0.9356200695 -0.0635500029
O  4.0366401672 -0.3614500165 -0.0825900063
N  3.9076204300 1.0340601206 -0.0164800026
C  5.0870003700 1.5565001965 -0.0458700024
C  5.1866803169 3.0213401318 0.0071700006
C  5.1470804214 3.7380003929 1.3300800323
O  6.3820405006 3.5065503120 0.6417600513
H  2.8357303143 -2.0225002766 -0.1220500097
H  2.1548902988 -0.5883000493 -0.9240700603
H  2.2209501266 -0.6781600714 0.8675400615
H  6.0165901184 0.9658700824 -0.1136300042
H  4.8392405510 3.5521101952 -0.8700900674
H  4.9520001411 3.1624903679 2.2266502380
H  4.7656302452 4.7508807182 1.3509501219
