15

C  1.0000001192 0.0000000000 0.0000000000
C  2.4440002441 0.0000000000 0.0000000000
C  3.6341602802 0.0000000000 0.0000000000
C  5.0781602859 0.0000000000 0.0000000000
C  5.5601801872 1.3611700535 0.0000000000
C  5.9574604034 2.4830701351 0.0000000000
C  6.4394807816 3.8442401886 0.0000000000
H  0.6059000492 1.0212700367 0.0116800005
H  0.6057900190 -0.5207000375 0.8786000609
H  0.6057900190 -0.5004600286 -0.8902700543
H  5.4559206963 -0.5345200300 -0.8785600662
H  5.4559206963 -0.5345200300 0.8785600662
H  5.6453604698 4.5436501503 -0.2816200256
H  7.2635707855 3.9706103802 -0.7094000578
H  6.8038105965 4.1333103180 0.9907600880
