16

C  4.3299403191 -0.7844900489 -0.9949800968
O  5.5244102478 -0.0519400053 -0.7516800165
N  5.1775302887 1.2743501663 -0.4564600587
C  6.2359204292 2.0199601650 -0.2898700237
C  7.6444702148 1.4739500284 -0.4035800397
C  5.9950604439 3.4578702450 0.0303400028
C  6.9201803207 4.4053802490 0.2202100158
H  4.6013903618 -1.8039101362 -1.2795600891
H  3.7649402618 -0.3291600347 -1.8150302172
H  3.7177302837 -0.8205800653 -0.0892000049
H  7.7693009377 0.9899901152 -1.3765701056
H  7.8055205345 0.7344600558 0.3874800205
H  8.4140605927 2.2390999794 -0.3145600259
H  4.9420804977 3.7210304737 0.1062900126
H  7.9866409302 4.2298002243 0.1608300060
H  6.6106605530 5.4216704369 0.4466800392
