14

O  1.1321700811 0.1494400054 0.5407600403
N  2.3948302269 0.0156400017 -0.0493700057
C  2.9846501350 1.1698800325 -0.1383600086
C  4.3606405258 1.2792800665 -0.7482300401
C  4.5503206253 2.7590804100 -0.6748100519
C  3.5232503414 3.3994603157 -0.1066200063
C  2.4180400372 2.4918701649 0.3249200284
H  0.7974500656 -0.7666701078 0.5261400342
H  4.3563604355 0.9146900773 -1.7785001993
H  5.0943107605 0.7416000962 -0.1426100135
H  5.4381799698 3.2500300407 -1.0503001213
H  3.4805603027 4.4714202881 0.0329100005
H  2.2872202396 2.4988701344 1.4094802141
H  1.4813301563 2.7176902294 -0.1908700168
