20

C  0.9283301234 1.9283300638 0.6302300096
C  2.4279501438 2.1389203072 0.7780300379
N  3.1276402473 1.4570500851 -0.3084600270
C  4.5850605965 1.5276401043 -0.1858700216
C  5.1994104385 0.6022500396 -1.2393600941
C  5.0994405746 2.9297103882 -0.3878200352
C  5.8090906143 3.6108503342 0.5222600102
H  0.3949400187 2.4444000721 1.4350301027
H  0.6710300446 0.8651400805 0.6827000976
H  0.5630200505 2.3242702484 -0.3233100176
H  2.7462401390 1.7408001423 1.7482701540
H  2.6327102184 3.2151203156 0.7665200830
H  2.8349602222 1.8338102102 -1.2077900171
H  4.8839607239 1.1449800730 0.7985500693
H  4.9296002388 0.9061400890 -2.2581102848
H  4.8621902466 -0.4309600294 -1.0970901251
H  6.2934308052 0.6040500402 -1.1704100370
H  4.8777604103 3.4066903591 -1.3400201797
H  6.0574207306 3.1818902493 1.4883801937
H  6.1529202461 4.6199903488 0.3176400363
