12

C  -0.7600900531 1.1694101095 -0.0015200000
C  0.6325900555 1.2452000380 -0.0006500001
C  1.3947501183 0.0768300071 0.0010100001
C  0.7639501095 -1.1675300598 0.0015700002
C  -0.6288400888 -1.2433501482 0.0005300001
C  -1.3908501863 -0.0750500038 -0.0011200000
H  -1.3539201021 2.0792002678 -0.0029400003
H  1.1238501072 2.2141799927 -0.0010700001
H  2.4797401428 0.1359600127 0.0018200001
H  1.3577800989 -2.0774402618 0.0030000003
H  -1.1200100183 -2.2124302387 0.0009300000
H  -2.4759602547 -0.1341200024 -0.0019400001
