15

N  2.9809401035 -0.9990200996 -0.5445700288
C  2.3402001858 0.0955200121 0.1685700119
C  3.2821002007 1.2544701099 0.1921300143
C  3.4355103970 2.1453101635 -1.0149000883
C  2.7396202087 2.6592202187 0.2143400162
O  3.4681103230 3.5956404209 1.0184600353
H  2.3525600433 -1.8000801802 -0.5586500764
H  3.8078701496 -1.2988700867 -0.0311600026
H  2.0989003181 -0.2126800269 1.1921701431
H  1.4002201557 0.3525600135 -0.3339100182
H  4.1627402306 1.0487401485 0.7883300781
H  2.8299303055 1.9304602146 -1.8889200687
H  4.4267501831 2.5095202923 -1.2520700693
H  1.6637301445 2.7933902740 0.1557400078
H  4.4235906601 3.5705101490 0.8408800364
