19

C  0.9254601002 2.3410601616 1.7213600874
C  2.4360201359 2.2784001827 1.6080201864
O  2.7656402588 1.7495001554 0.3261100054
C  4.1723504066 1.6641101837 0.1341499984
O  4.8008604050 2.9395201206 0.0698300004
C  4.3898706436 3.6760401726 -1.0798001289
C  5.1341204643 4.9966702461 -1.0895001888
H  0.6234200597 2.7513201237 2.6888902187
H  0.4888500273 1.3435800076 1.6079300642
H  0.5056400299 2.9652104378 0.9257400632
H  2.8417403698 1.6305100918 2.3930900097
H  2.8535702229 3.2846903801 1.7207101583
H  4.3640503883 1.1098500490 -0.7913600802
H  4.6261906624 1.0941300392 0.9523200393
H  3.3113703728 3.8638501167 -1.0400700569
H  4.6235504150 3.1110203266 -1.9887901545
H  4.9292507172 5.5614204407 -0.1742800176
H  4.8419303894 5.6024703979 -1.9515901804
H  6.2155108452 4.8289103508 -1.1253601313
