12

C  0.8604000807 0.0021800001 -0.0284500010
C  2.0596802235 -0.0025600002 -0.0328500010
C  3.5929203033 -0.0084200008 -0.0315899998
C  4.7919802666 -0.0139700016 -0.0194100011
C  6.2232203484 -0.0227900017 0.0144000007
C  6.9743309021 -0.7765900493 -1.0527100563
N  6.9453902245 0.6795000434 -1.0446600914
H  -0.2048000097 0.0078400001 -0.0228800010
H  6.6749606133 0.0244400017 1.0003000498
H  6.4183001518 -1.2554401159 -1.8495501280
H  7.9123806953 -1.2484800816 -0.7900500298
H  7.8171105385 1.0665100813 -0.6821200252
