12

C  1.8733401299 -0.0776900053 -1.2855601311
O  2.4428102970 0.2955500185 -0.0335300006
N  3.1906304359 1.4809700251 -0.2237100154
C  4.5487403870 1.4018000364 -0.0451200046
O  5.2321701050 2.3958401680 0.1766500175
C  5.1912903786 0.1122300103 -0.1758100092
C  5.7282204628 -0.9582700729 -0.2915800214
H  1.2930500507 -0.9924600720 -1.1385401487
H  2.6585202217 -0.2763400078 -2.0218300819
H  1.2039500475 0.7083900571 -1.6487101316
H  2.7694501877 2.3272004128 0.1413800120
H  6.2052006721 -1.9040601254 -0.3931300342
