17

C  0.9526901245 -0.0368800052 -0.1212400049
C  2.4713802338 0.0129600009 0.0101100001
C  3.1202003956 -1.2246100903 -0.5535700321
C  4.0986304283 -0.9223300815 -1.4175001383
C  4.2595605850 0.5556200743 -1.5820301771
C  3.1291401386 1.1391301155 -0.7689000368
C  2.7433202267 2.4213399887 -0.8163400888
H  0.4886600673 0.8366900682 0.3505800366
H  0.5475300550 -0.9283701181 0.3722700179
H  0.6342700720 -0.0613900051 -1.1699100733
H  2.7460401058 0.0928600058 1.0693700314
H  2.8404703140 -2.2275199890 -0.2672000229
H  4.7118105888 -1.6486301422 -1.9307900667
H  5.2299203873 0.8705601096 -1.1854400635
H  4.1812305450 0.8356100321 -2.6356000900
H  3.2637703419 3.1403803825 -1.4401301146
H  1.8988702297 2.7836601734 -0.2368200123
