17

C  0.9763100743 -0.2061800212 0.0867600068
C  2.4934802055 -0.1064500064 0.0596300028
C  2.9571502209 1.3470600843 -0.0392900035
C  4.4559507370 1.4382600784 -0.0588700064
C  5.1596908569 1.9368401766 -1.0846800804
C  6.5782303810 1.9971201420 -1.0477501154
C  7.7772202492 2.0470201969 -1.0208801031
H  0.6668400168 -1.2536801100 0.1570700109
H  0.5389900208 0.2167100161 -0.8233100772
H  0.5633400083 0.3287300169 0.9479200840
H  2.8750202656 -0.6811900735 -0.7931300402
H  2.8987402916 -0.5704500079 0.9671600461
H  2.5856702328 1.9158000946 0.8215500712
H  2.5282101631 1.8112500906 -0.9358300567
H  4.9760403633 1.0776201487 0.8270600438
H  4.6620001793 2.3057601452 -1.9765200615
H  8.8412008286 2.0892701149 -0.9957401156
