21

C  2.9032502174 -1.1127101183 1.2042601109
C  3.4990901947 -0.8643000722 -0.1785600036
C  2.4368402958 -1.0830500126 -1.2515401840
O  3.9399003983 0.4896800518 -0.3063600361
C  5.1840305328 0.7982300520 0.3272900283
C  6.3573508263 0.3321900368 -0.5298200846
C  5.2259402275 2.3138303757 0.4953500628
H  3.6667003632 -1.0396701097 1.9840800762
H  2.4557502270 -2.1094300747 1.2683801651
H  2.1376001835 -0.3658600152 1.4402800798
H  4.3255500793 -1.5587100983 -0.3621400297
H  1.6046200991 -0.3808100224 -1.1294101477
H  2.0426201820 -2.1033601761 -1.2214601040
H  2.8575403690 -0.9015401006 -2.2462999821
H  5.2392101288 0.3389000297 1.3189101219
H  6.2759704590 0.7213400602 -1.5501501560
H  6.3808503151 -0.7585500479 -0.6087099910
H  7.3108401299 0.6580900550 -0.1030700132
H  5.1514902115 2.8194601536 -0.4729800224
H  6.1489500999 2.6347301006 0.9897000790
H  4.3743700981 2.6535401344 1.0942901373
