15

C  1.1114701033 -0.3607400358 0.2625900209
N  2.3493301868 -0.2878600061 -0.5198000669
C  2.3190002441 -1.3038001060 -1.5794601440
C  2.4973702431 1.0666501522 -1.0886900425
C  3.8760504723 1.2350100279 -1.6888101101
O  4.0752301216 1.6568801403 -2.8261101246
H  1.1342900991 0.3613700271 1.0863600969
H  1.0020800829 -1.3511401415 0.7186800838
H  0.2232200205 -0.1609200090 -0.3477900326
H  2.1943800449 -2.3030903339 -1.1471000910
H  3.2642302513 -1.3249100447 -2.1317601204
H  1.5040901899 -1.1341000795 -2.2925603390
H  2.4191403389 1.8208000660 -0.2965500057
H  1.7354400158 1.2812000513 -1.8472801447
H  4.7211298943 1.0064700842 -1.0160200596
