19

C  1.4208301306 0.1795200258 -1.8679301739
C  0.8318400979 0.4532300532 -0.4935600460
C  1.7540401220 1.2649101019 0.4313100278
C  1.9973502159 2.6750302315 -0.1041600108
O  1.0772200823 1.3441500664 1.6958601475
C  1.7969601154 1.5246101618 2.8397603035
C  3.1140303612 1.6816601753 3.0038204193
H  0.7556800246 -0.4785800576 -2.4364700317
H  2.3952901363 -0.3122700155 -1.7874801159
H  1.5430101156 1.1011201143 -2.4442701340
H  0.6025800705 -0.5047399998 -0.0091900006
H  -0.1332700104 0.9642500877 -0.6014200449
H  2.6986601353 0.7166800499 0.5303100348
H  1.0497400761 3.2063503265 -0.2453500181
H  2.5362203121 2.6589603424 -1.0554500818
H  2.5844800472 3.2709703445 0.6014800072
H  1.1161700487 1.5315300226 3.6857504845
H  3.8202803135 1.6897400618 2.1832101345
H  3.5211503506 1.8195301294 4.0009703636
