12

O  0.9373601079 -0.1745700091 -0.3577400446
C  2.0861999989 0.0860900059 -0.1161700040
C  3.3962302208 -0.5712100267 0.5498800278
N  3.4962701797 0.8236800432 1.1676501036
C  3.1397702694 1.2971202135 -0.2405900210
C  4.2518501282 0.7284700871 -1.0381300449
C  4.4208002090 -0.4979700446 -0.5190800428
H  3.3268601894 -1.4213401079 1.2194800377
H  2.7781300545 1.0209600925 1.8670902252
H  2.8113701344 2.3231699467 -0.3661100268
H  4.7989501953 1.2020901442 -1.8366501331
H  5.1368703842 -1.2536101341 -0.7969100475
