18

C  0.8948400617 -0.0228200015 0.1410300136
C  2.3982901573 0.0184400026 -0.0064400006
N  2.8264002800 0.0556900054 -1.4131301641
C  3.1875703335 1.0872700214 0.7799700499
C  4.1962003708 0.0013400001 1.2166601419
O  5.4891905785 0.0382100046 0.5778400302
C  3.2085702419 -1.0778101683 0.7202000618
H  0.6019700766 -0.0618000031 1.1963601112
H  0.4700400531 -0.9050300717 -0.3509700000
H  0.4270800352 0.8668700457 -0.2956900001
H  3.7698204517 0.4101300240 -1.5713402033
H  2.2305402756 0.6416900158 -2.0016102791
H  2.6372601986 1.5155701637 1.6268601418
H  3.6066701412 1.9190801382 0.2038800120
H  4.3393001556 -0.0202500001 2.3029701710
H  5.3699307442 -0.4211100340 -0.2709200382
H  3.6380500793 -1.8695701361 0.0966500044
H  2.6697900295 -1.5629401207 1.5437600613
