12

C  1.0336201191 -0.0429000035 0.0871600062
S  2.8024902344 -0.0540400036 -0.0630800053
O  3.3285801411 -0.7034201026 1.1230200529
O  3.1243500710 -0.5586799979 -1.3842601776
C  3.1891202927 1.6378901005 0.0335800014
C  3.1060402393 2.4189701080 -1.0509301424
H  0.6042600274 0.5050400496 -0.7538200617
H  0.7580900788 0.4222200215 1.0357900858
H  0.6862400174 -1.0783400536 0.0685400069
H  3.5099000931 2.0154402256 0.9951800704
H  2.8085601330 2.0295400620 -2.0218701363
H  3.3629603386 3.4721901417 -0.9948500991
