17

N  1.1731501818 0.0580300018 0.5717900395
C  2.3674802780 0.0366900042 0.0845200047
C  3.0589902401 -1.3040001392 -0.0658600032
C  4.0671901703 -1.2963900566 -1.2061600685
C  4.9578003883 -0.0614100061 -1.1240801811
C  4.1130599976 1.2024000883 -1.2126901150
N  3.0354602337 1.1847001314 -0.2398400307
H  0.8483300805 1.0219300985 0.6531000137
H  2.3120703697 -2.0900301933 -0.2251000106
H  3.5658102036 -1.5165001154 0.8829700351
H  4.6782703400 -2.2048101425 -1.1662400961
H  3.5383100510 -1.3030101061 -2.1669502258
H  5.5174202919 -0.0730100051 -0.1802700162
H  5.6917004585 -0.0740400031 -1.9374002218
H  4.7405405045 2.0830800533 -1.0414700508
H  3.6833903790 1.2967700958 -2.2167301178
H  2.4871001244 2.0357902050 -0.2213600129
