16

N  0.9957200289 -0.0239300020 -0.0954100117
C  2.4528801441 -0.0998400077 -0.0457700007
C  3.1764302254 -0.7942600846 -1.1556500196
C  3.2693302631 0.7083900571 -1.0307900906
C  4.5426602364 1.4301000834 -0.6144599915
C  5.9252605438 1.0378600359 -1.0761899948
O  5.2142806053 2.1160101891 -1.6871801615
H  0.6540100574 0.7716600895 0.4431700408
H  0.5735700130 -0.8529500961 0.3218400180
H  2.8681001663 -0.2209100127 0.9525700808
H  2.6001400948 -1.1902600527 -1.9842501879
H  4.0413904190 -1.3921000957 -0.8962200284
H  2.6870703697 1.2666400671 -1.7659500837
H  4.4795303345 1.9756801128 0.3232000172
H  6.0459008217 0.1301000118 -1.6528501511
H  6.7669100761 1.2877200842 -0.4432200193
