15

O  0.7817000747 1.8667701483 -1.7004400492
C  1.8904801607 2.3462901115 -1.9260801077
C  3.1357302666 1.9570701122 -1.1732900143
O  3.9087803364 3.1317300797 -0.9638800621
C  5.1373205185 2.8696901798 -0.2594200373
C  6.3717503548 2.7622201443 -1.1087000370
C  6.1316504478 3.9946603775 -0.2850100100
H  2.0435700417 3.0309803486 -2.7778601646
H  3.6983902454 1.2431700230 -1.7820701599
H  2.8567502499 1.5110301971 -0.2138700187
H  5.0926904678 2.2863602638 0.6567000151
H  6.2667007446 2.8469400406 -2.1837000847
H  7.1508507729 2.0817000866 -0.7876100540
H  6.7439203262 4.1478705406 0.5954000354
H  5.8543901443 4.9070606232 -0.7996700406
