16

N  2.8659002781 -0.9867100716 -0.6510699987
C  2.3583500385 0.0874700099 0.1880600154
C  3.3480603695 1.2052501440 0.1713900119
C  3.4426002502 2.1356003284 -1.0104501247
C  2.8707301617 2.6347403526 0.2917200327
C  3.6449003220 3.5501401424 1.0783300400
C  4.2910099030 4.3179602623 1.7377802134
H  2.2175202370 -1.7713900805 -0.6183600426
H  3.7451603413 -1.3295800686 -0.2680000067
H  2.2177801132 -0.2708100080 1.2131500244
H  1.3825600147 0.4102200270 -0.1908500195
H  4.2732305527 0.9351400733 0.6693500280
H  2.7623202801 1.9791901112 -1.8401901722
H  4.4305300713 2.4645602703 -1.3121401072
H  1.7980601788 2.8055603504 0.3095400035
H  4.8651504517 4.9999904633 2.3208200932
