19

C  1.1405401230 0.2640700340 0.2104100138
C  2.5979402065 0.0250600036 -0.1905800253
C  2.6474802494 -0.6631300449 -1.5346901417
C  3.1688301563 -1.8807201385 -1.7366101742
C  3.3564703465 1.3334100246 -0.1849900186
C  4.1942901611 1.7232301235 1.0087900162
C  4.8620104790 1.3449001312 -0.2828800380
H  1.0817000866 0.7413100004 1.1967000961
H  0.5827100277 -0.6788700819 0.2595000267
H  0.6286000609 0.9219900966 -0.5018500686
H  3.0378401279 -0.6398700476 0.5652300119
H  2.2401301861 -0.1179200113 -2.3837902546
H  3.5941901207 -2.4609901905 -0.9234900475
H  3.1839203835 -2.3215701580 -2.7286303043
H  2.8297803402 2.1218802929 -0.7139500380
H  4.2793402672 1.0316300392 1.8384301662
H  4.2087502480 2.7666101456 1.3002401590
H  5.3230700493 2.1319401264 -0.8697201014
H  5.3848404884 0.3950000405 -0.3313300312
