13

O  4.0997800827 2.3078100681 -3.1366901398
C  3.0717403889 2.5039601326 -2.5020503998
N  2.9403200150 2.3961901665 -1.1314300299
N  4.0243601799 1.9304101467 -0.3531400263
C  4.8895306587 3.0413601398 0.0648900047
C  5.9715504646 2.5357201099 0.9206100702
C  6.8580703735 2.1303400993 1.6203501225
H  2.1213302612 2.7945001125 -2.9788901806
H  2.0243401527 2.4726200104 -0.6964401007
H  4.5955705643 1.3193401098 -0.9506700635
H  4.3029003143 3.7810301781 0.6216800213
H  5.3168001175 3.5444102287 -0.8106300831
H  7.6442604065 1.7693201303 2.2428202629
