17

N  1.0094300508 0.0677500069 0.0227400009
C  2.4690902233 0.0218800027 -0.0740100071
C  3.1027102470 0.9676200747 0.9710900187
N  4.0740504265 -0.1145700142 1.3037700653
C  3.0414302349 -1.1022701263 0.8249400854
C  3.6764202118 -2.3009102345 0.1282700151
O  4.5294404030 -2.9881803989 1.0426900387
H  0.5343900323 -0.6777800322 -0.4860000312
H  0.6006399989 0.9407600760 -0.3103700280
H  2.8840603828 0.0963800102 -1.0850300789
H  2.4706702232 1.2464801073 1.8235200644
H  3.5598502159 1.8762902021 0.5672300458
H  4.9083800316 -0.0782300010 0.7149201035
H  2.3802001476 -1.4235101938 1.6434301138
H  4.2824902534 -1.9967702627 -0.7310700417
H  2.9108901024 -2.9989902973 -0.2220100164
H  4.8458604813 -2.3195602894 1.6805502176
