17

C  0.9282300472 -0.0136500010 0.1720900089
C  2.4338102341 0.0088800006 -0.0638200045
C  2.7827503681 0.0140500013 -1.5488500595
C  3.1957502365 1.0761301517 0.7880900502
C  4.1625404358 0.0039400002 1.3416701555
C  3.2201302052 -1.0597901344 0.7512500286
O  3.1366703510 -2.2626399994 0.8719400764
H  0.6889800429 -0.0446500070 1.2407701015
H  0.4716100097 -0.8928800821 -0.2952600121
H  0.4540500343 0.8788201213 -0.2503100038
H  3.8669703007 0.0229500011 -1.7069001198
H  2.3675601482 0.8984000683 -2.0438702106
H  2.3816602230 -0.8745000362 -2.0482602119
H  2.5897102356 1.5494501591 1.5704400539
H  3.6837203503 1.8731402159 0.2171300203
H  5.1534104347 -0.0019500001 0.8790000677
H  4.2536301613 -0.0246900022 2.4291601181
