17

C  2.5359401703 -0.4591300189 1.4676901102
C  2.6303904057 0.0317800045 0.0308700018
C  3.1633503437 1.4244501591 -0.0522200055
C  4.3278303146 1.8186200857 -0.5646200180
C  4.4481401443 3.2839303017 -0.4100400209
C  3.0378201008 3.6509001255 0.0369400047
O  2.3693599701 2.4459099770 0.4612100124
H  2.1531002522 -1.4844200611 1.4914201498
H  1.8591001034 0.1662600040 2.0593299866
H  3.5177202225 -0.4533500373 1.9530102015
H  1.6387101412 -0.0031900003 -0.4349000454
H  3.2700603008 -0.6531900167 -0.5384500623
H  5.0803103447 1.1747601032 -0.9935801029
H  5.1904106140 3.5318102837 0.3555500209
H  4.7181200981 3.7913303375 -1.3403199911
H  2.4614701271 4.0868501663 -0.7879600525
H  3.0468101501 4.3678803444 0.8642800450
