16

C  0.8116900325 0.0949300081 0.0869200081
C  2.2976400852 -0.0032800003 0.2233500183
C  3.1454901695 0.9731200337 -0.1391700059
C  4.6454005241 0.9719100595 -0.0381500050
C  5.2935299873 -0.2695000470 0.5633700490
O  5.1524906158 1.1496701241 -1.3576201200
H  0.4437700510 -0.7076800466 -0.5594700575
H  0.4963900447 1.0509101152 -0.3428100348
H  0.3402700126 -0.0100700008 1.0688101053
H  2.6697602272 -0.9333500862 0.6453800797
H  2.7335202694 1.8930501938 -0.5541100502
H  4.9523005486 1.8452501297 0.5478000641
H  5.0756001472 -1.1631700993 -0.0323800035
H  4.9615302086 -0.4392400384 1.5923700333
H  6.3839206696 -0.1607800126 0.5672100186
H  4.7788505554 0.4340800047 -1.9003101587
