17

C  1.0197501183 0.0455100015 0.0796400085
C  2.3594503403 -0.0048800004 0.0234900005
C  3.1228401661 -1.3009001017 -0.0029200001
C  4.1133003235 -1.2922201157 -1.1634700298
C  4.9335303307 -0.0069500003 -1.1591500044
O  4.0776104927 1.1354100704 -1.2012000084
C  3.2291603088 1.2202900648 -0.0547400042
H  0.4871400297 0.9923600554 0.0771500021
H  0.4181200266 -0.8575900793 0.1180000082
H  2.4551100731 -2.1650602818 -0.0950700119
H  3.6652302742 -1.4126501083 0.9440400600
H  4.7725400925 -2.1649501324 -1.1075400114
H  3.5550901890 -1.3584101200 -2.1062302589
H  5.5817704201 0.0520600043 -0.2767900229
H  5.5762705803 0.0257900022 -2.0447201729
H  3.8407304287 1.3232901096 0.8493400812
H  2.6315202713 2.1321201324 -0.1552800089
