10

O  1.0277100801 0.0421300046 0.1810300201
C  2.2481904030 0.0215900000 0.0672499985
O  2.9871802330 1.1515800953 0.0160000008
C  4.3233904839 1.0288000107 -0.1101300046
N  5.0014204979 -0.0642800033 -0.1900000274
C  4.2777805328 -1.2147101164 -0.1405100226
C  2.9541404247 -1.2514500618 -0.0179900005
H  4.8023600578 2.0191102028 -0.1393500119
H  4.8462905884 -2.1391801834 -0.2076200247
H  2.3796801567 -2.1650700569 0.0213100016
