17

N  2.3581299782 -0.6090900302 1.1532500982
C  2.2486402988 0.1098300070 -0.1127600074
C  2.8795902729 1.4808100462 -0.0155700007
C  2.1140902042 2.5855803490 -0.1012400091
C  4.3422803879 1.4998900890 0.1772900075
C  5.2382802963 1.2652601004 -1.0133100748
N  5.1237602234 2.5879700184 -0.4163700342
H  1.8729801178 -1.5003501177 1.0672500134
H  1.8523302078 -0.0827200040 1.8651001453
H  1.1902300119 0.1788100153 -0.3906400502
H  2.7440502644 -0.4679100215 -0.9011400938
H  1.0405501127 2.5351002216 -0.2432200164
H  2.5609102249 3.5735802650 -0.0367200039
H  4.6808800697 1.1415801048 1.1447401047
H  4.7943305969 1.1541001797 -1.9947700500
H  6.1711306572 0.7381200790 -0.8606800437
H  5.9284405708 2.7978503704 0.1750800163
