10

O  0.8827100992 -0.0419800058 0.1002100036
S  2.3121201992 0.0464600027 0.3105300367
O  2.9351902008 -0.0419900045 1.6139000654
C  3.0183503628 1.2808901072 -0.6473900080
C  3.7304203510 0.6848500371 -1.6129301786
N  3.7778701782 -0.6958600283 -1.6772102118
C  3.0616703033 -1.1873800755 -0.7062700391
H  2.8856701851 2.3318202496 -0.4670900404
H  4.2828102112 1.2439601421 -2.3622403145
H  2.9274702072 -2.2623500824 -0.5235300660
