15

O  1.5502700806 -0.2747499943 -0.7891100645
C  2.7754702568 0.0528500006 -0.1374700069
C  3.5505003929 -1.0536800623 0.5157600045
C  4.0430703163 -0.4434600174 -0.7598500848
O  5.0165505409 0.6280900836 -0.6773100495
C  4.2859902382 1.8535500765 -0.4851000309
C  2.9946601391 1.4771600962 0.2430600077
H  0.8077200651 -0.2801800370 -0.1607800126
H  3.1495101452 -2.0586202145 0.4642400146
H  4.1049103737 -0.8444800377 1.4223601818
H  3.9800202847 -1.0181300640 -1.6756200790
H  4.8912301064 2.5637702942 0.0846800059
H  4.0722403526 2.2760002613 -1.4725301266
H  3.1314101219 1.5578501225 1.3280200958
H  2.1708400249 2.1390001774 -0.0422700047
