18

C  1.0033700466 0.0030200002 0.0192700010
C  2.5213901997 -0.0086900005 0.0665900037
N  3.0482702255 -1.0653300285 0.9425300360
C  3.8912601471 -0.2716000378 1.8693901300
C  4.5849199295 0.7888100743 0.9519600272
C  3.0999901295 1.2175900936 0.7533301115
C  2.9718403816 0.9230500460 2.2802803516
H  0.6252600551 -0.9040700793 -0.4639700353
H  0.6470700502 0.8670501113 -0.5515100360
H  0.5504100323 0.0631700009 1.0138400793
H  2.9202702045 -0.1105600074 -0.9504800439
H  3.5753002167 -1.7363801003 0.3844100535
H  4.4636802673 -0.8021301031 2.6279201508
H  5.1222906113 0.4142400324 0.0743200034
H  5.2280101776 1.5145400763 1.4647601843
H  2.8913700581 2.2187502384 0.3803900182
H  3.4262802601 1.6659401655 2.9473402500
H  1.9815901518 0.6762200594 2.6734700203
