19

C  0.6666800380 0.5195700526 -0.6263800263
C  2.1490702629 0.6462300420 -0.7669400573
C  2.9447102547 1.2072900534 0.1542900056
C  4.4351301193 1.3347200155 0.0061900006
C  4.9084401131 2.7879402637 0.0128500005
C  4.3961305618 3.5916104317 -1.1768100262
O  4.9534001350 4.9007101059 -1.1430100203
H  0.1698600203 1.0273600817 -1.4588500261
H  0.3007100224 0.9582101107 0.3072900176
H  0.3785000145 -0.5358100533 -0.6453100443
H  2.5772101879 0.2504800260 -1.6864901781
H  2.5137801170 1.5935200453 1.0770699978
H  4.7817401886 0.8409800529 -0.9099400640
H  4.9065003395 0.8051201105 0.8428900838
H  6.0058803558 2.8076300621 0.0092200013
H  4.6101803780 3.2834200859 0.9458900690
H  3.3060202599 3.6856701374 -1.1686199903
H  4.6945805550 3.1242201328 -2.1201300621
H  4.6375703812 5.3290300369 -0.3290600181
