19

C  2.9650502205 -1.1673601866 -0.3072299957
C  2.3905901909 -0.0206900015 0.5149700642
C  3.0686602592 1.3243200779 0.2128200233
C  2.3556802273 2.4579403400 0.9478300810
N  4.4593801498 1.2820000648 0.6365200281
C  5.4264307022 2.0695302486 0.1078100055
N  6.6128401756 2.1999702454 0.5807100534
H  2.4188601971 -2.0920002460 -0.0951900110
H  4.0194401741 -1.3399200439 -0.0713400021
H  2.8798201084 -0.9619800448 -1.3788800240
H  2.4842300415 -0.2653300166 1.5806300640
H  1.3179301023 0.0552900024 0.2978300452
H  3.0135502815 1.5134301186 -0.8665100336
H  2.3900101185 2.3132603168 2.0334100723
H  1.3054300547 2.5194504261 0.6445500255
H  2.8254101276 3.4229702950 0.7285300493
H  4.6385502815 0.8647300601 1.5416101217
H  5.1257305145 2.6205103397 -0.7995900512
H  6.7198204994 1.6102402210 1.4072201252
