12

O  1.0000700951 -0.0051600002 -0.0086800000
C  2.4200003147 0.0000000000 0.0000000000
C  2.9020202160 1.3611700535 0.0000000000
C  3.2993004322 2.4830701351 0.0000000000
C  3.7686305046 3.8084201813 0.0000000000
C  2.9279100895 4.8481307030 -0.0000500000
H  0.7248400450 -0.9360500574 -0.0082400013
H  2.7714200020 -0.5405200720 -0.8842300773
H  2.7605402470 -0.5366600156 0.8908200860
H  4.8412699699 3.9761502743 0.0000200000
H  1.8506501913 4.7089505196 -0.0001100000
H  3.3040003777 5.8654603958 -0.0000700000
