15

C  -1.4807400703 0.8277500272 0.5273000002
C  -1.1611500978 -0.4107700288 -0.2666600049
C  -0.2398300171 -1.4157000780 0.2974800169
C  1.0808299780 -1.2063500881 0.4521500468
C  1.6714801788 0.0660200045 0.0852900073
C  0.9089600444 1.0577601194 -0.4103900492
C  -0.5419099927 0.9268600941 -0.6457100511
H  -2.4714500904 1.2538000345 0.4172600210
H  -1.0777100325 0.9246600866 1.5296701193
H  -1.9281301498 -0.8062400818 -0.9232100248
H  -0.6641500592 -2.3718500137 0.5913900733
H  1.7267901897 -1.9720902443 0.8680700660
H  2.7376101017 0.1992000043 0.2369700223
H  1.3718700409 2.0063102245 -0.6670000553
H  -0.9068200588 1.4067301750 -1.5470302105
