16

C  2.5299401283 -0.4895800650 1.3728001118
C  2.5288500786 0.1311300099 -0.0179700013
C  2.9730601311 1.5766000748 -0.0038400004
C  2.0726802349 2.5709602833 -0.0421200059
N  4.3102002144 1.9045002460 0.0196300019
C  5.3967003822 1.0748800039 0.0376700014
O  6.5480804443 1.4939001799 0.0491100028
H  2.2041902542 -1.5331901312 1.3183801174
H  1.8429101706 0.0419000052 2.0400302410
H  3.5256302357 -0.4705000520 1.8261301517
H  1.5117801428 0.0572300069 -0.4252700210
H  3.1521203518 -0.4580600560 -0.7002000809
H  1.0065500736 2.3647601604 -0.0681900084
H  2.3618099689 3.6172003746 -0.0425100029
H  4.5667805672 2.8860602379 0.0166700017
H  5.1681404114 0.0002300000 0.0417600013
