13

C  1.0255200863 -0.0585700050 0.1087900102
C  2.5190103054 0.1256300062 -0.0545300059
C  3.2006301880 1.1422101259 0.8693500757
C  4.1253504753 -0.0184200015 1.2279599905
O  3.2535903454 -0.9654900432 0.5640000701
H  0.6777300239 -0.9203800559 -0.4697700143
H  0.4883600175 0.8250300288 -0.2497700155
H  0.7509100437 -0.2212500125 1.1560600996
H  2.8109703064 0.2260600179 -1.1076101065
H  2.5905003548 1.5041800737 1.7020100355
H  3.6813902855 1.9838202000 0.3657000065
H  5.1136703491 0.0045600007 0.7591900229
H  4.2209005356 -0.2288100272 2.2960400581
