15

C  0.9816800952 -0.0310700014 -0.1143100113
C  2.5058200359 -0.0061300006 -0.0529400073
C  3.1201102734 -0.9047200680 -1.1218301058
C  3.0352201462 1.4151500463 -0.1616300046
N  2.7629702091 2.0817201138 -1.3176701069
O  3.6774003506 1.9560301304 0.7326200604
H  0.5517200232 0.6468300223 0.6310300231
H  0.6033999920 -1.0390601158 0.0860100016
H  0.6081300378 0.2783100307 -1.0963500738
H  2.8148601055 -0.3835700154 0.9303100705
H  2.8001203537 -0.6173400879 -2.1291201115
H  2.8295602798 -1.9485201836 -0.9627300501
H  4.2137703896 -0.8492200375 -1.0944101810
H  2.2395801544 1.6834200621 -2.0833902359
H  3.1092002392 3.0285301208 -1.4037001133
