13

N  1.2491500378 0.1515800208 0.2988400161
C  2.3898301125 -0.0640700012 -0.2502700090
O  2.6075301170 -1.2479500771 -0.8949500322
C  3.9892802238 -1.3222801685 -1.2505000830
C  4.5440602303 0.0149100004 -0.9188401103
C  3.9810302258 1.2492901087 -1.5481700897
N  3.4829404354 0.7782600522 -0.2507500052
H  1.3022701740 1.0760101080 0.7356600761
H  4.4626603127 -2.1188502312 -0.6685500145
H  4.0766305923 -1.5482301712 -2.3172602654
H  5.4875307083 0.0257100016 -0.3971900344
H  4.5388703346 2.1718702316 -1.4726800919
H  3.2658901215 1.1767801046 -2.3567903042
