15

N  1.4558600187 -0.3194200099 -0.9110700488
C  2.0745701790 0.1664100140 0.3275200427
C  2.8401901722 1.4652601480 0.0413100012
C  2.1197302341 2.7792201042 0.1398999989
C  0.7971301079 2.9197702408 0.2813600302
N  4.0957102776 1.3268401623 -0.2797900140
O  4.7248101234 2.5529401302 -0.5279000401
H  1.1066200733 -1.2633301020 -0.7557000518
H  2.1914901733 -0.4067200422 -1.6151101589
H  2.7803702354 -0.5832900405 0.7030600905
H  1.3181600571 0.3194000125 1.1017200947
H  2.7427802086 3.6659402847 0.0735500082
H  0.1127600074 2.0791802406 0.3198200166
H  0.3570000529 3.9113903046 0.3333200216
H  5.6292605400 2.2788500786 -0.7676500678
