15

C  1.8968501091 -0.6419700384 -1.1183301210
C  2.0615701675 0.3353600502 -0.2176300287
C  3.2180502415 1.2325500250 -0.1296500117
C  3.4775302410 2.2065601349 -1.2474801540
C  2.9761602879 2.7113800049 0.0783500075
C  3.8765401840 3.4441404343 0.9207500815
C  4.6275701523 4.0590600967 1.6264101267
H  1.0110601187 -1.2685401440 -1.1055500507
H  2.6424303055 -0.8340200186 -1.8833402395
H  1.2844101191 0.4732800424 0.5328100920
H  4.0858302116 0.7916600704 0.3532600105
H  2.7930400372 2.2387001514 -2.0876700878
H  4.5100903511 2.3933100700 -1.5212001801
H  1.9447201490 3.0538504124 0.1014500111
H  5.2947006226 4.6051406860 2.2528200150
