15

N  1.4102700949 0.3014500141 0.5537300110
C  2.5524101257 0.0008000000 0.0347900018
C  2.9150702953 -1.4387001991 -0.2471400201
C  4.2084302902 -1.3256000280 -1.0444600582
C  4.6179704666 0.1121300086 -0.9273900986
C  3.8572103977 1.1743100882 -1.6644001007
N  3.5591502190 0.9002800584 -0.2595300376
H  1.3990499973 1.3212101460 0.6796200275
H  2.1226401329 -1.9508101940 -0.7978500724
H  3.0809602737 -1.9502902031 0.7064100504
H  4.9766502380 -1.9977401495 -0.6496900320
H  4.0404901505 -1.5899801254 -2.0943601131
H  5.6043505669 0.2981100380 -0.5300900340
H  4.3285403252 2.1359100342 -1.8129701614
H  3.0668802261 0.9095500708 -2.3538804054
