21

N  0.8100301027 1.1755001545 1.4601800442
C  2.0796701908 0.9035700560 0.7957000732
C  2.9248902798 2.1737902164 0.7289700508
C  4.2579202652 1.9153602123 0.0232700016
C  5.1075105667 3.1868202686 -0.0435900055
C  6.4382505417 2.9276702404 -0.7483500838
N  7.2340602875 4.1479601860 -0.7897700667
H  0.2831400335 0.3076699972 1.5523301363
H  0.9831101298 1.5063500404 2.4090301991
H  1.8797301054 0.5290400386 -0.2140200138
H  2.6148600578 0.1194200069 1.3428500891
H  3.1159102917 2.5472202301 1.7425601482
H  2.3749802113 2.9579100609 0.1941200048
H  4.0709404945 1.5452001095 -0.9923600554
H  4.8107500076 1.1321600676 0.5565100312
H  5.2916207314 3.5565402508 0.9733900428
H  4.5509104729 3.9692201614 -0.5752300620
H  6.2630105019 2.5729403496 -1.7694001198
H  7.0007305145 2.1526601315 -0.2171100229
H  6.7289605141 4.8706603050 -1.3011901379
H  8.0916805267 3.9752402306 -1.3124899864
