14

C  0.9919700623 -0.0091100009 0.0889700055
C  2.5200002193 0.0000000000 0.0000000000
C  2.9785602093 -0.7497800589 -1.2594101429
C  4.4239201546 -1.0364500284 -1.2388901711
C  5.6023402214 -1.2668900490 -1.2248100042
C  3.0020201206 1.3611700535 0.0000000000
N  3.3862302303 2.4461600780 0.0000000000
H  0.6477400661 0.5133200288 0.9890000820
H  0.6099000573 -1.0347300768 0.1321200132
H  0.5361199975 0.4863700569 -0.7762400508
H  2.9069004059 -0.5178000331 0.8875401020
H  2.7306301594 -0.1784799993 -2.1631402969
H  2.4437000751 -1.7050801516 -1.3339500427
H  6.6500005722 -1.4643001556 -1.2151300907
