16

N  2.8302402496 -1.0594700575 -0.5719800591
C  2.1972701550 0.0796000063 0.0818300098
C  3.1909902096 1.2069700956 0.1703000069
O  4.3481302261 0.9340500832 0.9952101111
C  3.4431703091 2.0929601192 -1.0194500685
C  2.7177700996 2.6402902603 0.1781500131
O  3.4716002941 3.5388603210 1.0117800236
H  2.2738101482 -1.8962601423 -0.4144400358
H  3.7369303703 -1.2207701206 -0.1312800050
H  1.8795901537 -0.2016400248 1.0917301178
H  1.3049901724 0.3727100194 -0.4813500345
H  4.0871305466 0.8874000311 1.9321601391
H  2.8711402416 1.9086201191 -1.9214301109
H  4.4606604576 2.4124302864 -1.2075999975
H  1.6563000679 2.8350901604 0.0690100044
H  4.3973803520 3.2380301952 1.0779300928
