16

C  1.2987201214 -0.5556700230 -0.8274400830
N  2.6888802052 -0.3894600272 -0.4972100556
C  3.3712801933 0.7724601030 -0.8031300902
O  2.8851501942 1.6999101639 -1.4410901070
C  4.8162107468 0.7559500337 -0.2722900212
C  5.5115203857 2.0967700481 -0.4435000122
O  4.8345599174 0.3752800226 1.1035301685
H  1.0563601255 -1.6205201149 -0.7898200154
H  1.0958200693 -0.1612500101 -1.8272300959
H  0.6970400810 -0.0122600012 -0.0937100053
H  3.1103301048 -0.9888200164 0.2057600021
H  5.3634204865 -0.0088900011 -0.8337300420
H  4.9917106628 2.8844201565 0.1140500158
H  5.5507206917 2.3935601711 -1.4970802069
H  6.5342702866 2.0512800217 -0.0532800034
H  4.4222903252 1.1037300825 1.6022400856
