20

C  1.6684001684 1.5015701056 -0.9140200615
C  3.0731601715 1.1247701645 -0.4886700511
O  3.7892103195 2.3200302124 -0.1870800108
C  5.1264004707 2.0401501656 0.2426300198
C  5.8378205299 3.3674201965 0.5738600492
C  7.2688207626 3.1212804317 1.0372500420
N  5.8434405327 4.2728400230 -0.5871200562
H  1.0819101334 0.6108600497 -1.1569401026
H  1.6928601265 2.1586201191 -1.7902101278
H  1.1589599848 2.0532002449 -0.1166000068
H  3.5768303871 0.5882100463 -1.3000401258
H  3.0336902142 0.4826700091 0.3973700404
H  5.6587004662 1.5061200857 -0.5542300344
H  5.0942702293 1.4038300514 1.1351900101
H  5.2824301720 3.8730802536 1.3725900650
H  7.8641209602 2.6279902458 0.2610600293
H  7.2812905312 2.4832801819 1.9271900654
H  7.7643604279 4.0628805161 1.2969200611
H  4.8691501617 4.3587403297 -0.8929700851
H  6.3177304268 3.8196101189 -1.3668700457
