16

O  0.7787200212 0.0115500009 -0.1132500097
C  2.1923999786 -0.1405600160 -0.1474200189
C  2.8320002556 1.2398101091 -0.1894300282
C  4.3505806923 1.1671600342 -0.1529600173
O  4.8188004494 0.4544500411 -1.2980600595
N  6.2153706551 0.3579900265 -1.2202800512
C  6.6447105408 -0.2547300160 -2.2704901695
H  0.3975600302 -0.8831600547 -0.1141600087
H  2.4548401833 -0.7274900079 -1.0330600739
H  2.5022201538 -0.6882100701 0.7481400967
H  2.4669003487 1.8426702023 0.6507200599
H  2.5027601719 1.7503501177 -1.1033500433
H  4.6861701012 0.6587500572 0.7585600019
H  4.7688803673 2.1799201965 -0.1661700159
H  7.7235403061 -0.4304300547 -2.4012002945
H  5.9762201309 -0.6230900884 -3.0666701794
