17

O  1.0497601032 -0.0077400007 0.1828000098
C  2.4760401249 0.0044600004 0.0566100031
C  2.9117703438 -1.3555802107 -0.4809900224
C  2.5386502743 -1.5059801340 -1.9549502134
C  3.0279002190 -0.3102500439 -2.7603800297
O  2.5152702332 0.9119300842 -2.2254099846
C  2.9462404251 1.1291501522 -0.8759800196
H  0.7251600623 0.8987500668 0.0481200032
H  2.8825602531 0.1625500172 1.0599501133
H  2.4432802200 -2.1646401882 0.0916100070
H  3.9982903004 -1.4582700729 -0.3743300438
H  2.9600002766 -2.4332301617 -2.3592500687
H  1.4477101564 -1.5752201080 -2.0409002304
H  4.1238102913 -0.2656500340 -2.7802603245
H  2.6829903126 -0.3904700279 -3.7955002785
H  4.0376405716 1.2234801054 -0.8607300520
H  2.5195002556 2.0869500637 -0.5606200695
