13

C  2.2032001019 -1.2586200237 -0.4574800432
O  3.4782803059 -0.6401900649 -0.2772200108
C  3.4268102646 0.7247000337 -0.1957500130
O  2.3979201317 1.3829301596 -0.2647600174
C  4.8303003311 1.2623100281 -0.0089600002
C  4.8853106499 2.7309603691 0.0751399994
C  4.9374203682 3.9285502434 0.1440900117
H  2.3542702198 -2.3409602642 -0.4952400327
H  1.7532200813 -0.9384000897 -1.4023801088
H  1.5428200960 -1.0306400061 0.3850600421
H  5.4384503365 0.9258500338 -0.8558200598
H  5.2394704819 0.8310600519 0.9112000465
H  4.9722104073 4.9924106598 0.2039200068
