17

N  1.0239801407 0.0402100012 0.1348000169
C  2.4694302082 0.0155000007 -0.0696500018
C  3.1392102242 1.0525200367 0.8564500809
C  4.1332101822 -0.0435300060 1.3012601137
N  5.3204503059 -0.0107500004 0.4318900406
C  3.1111104488 -1.1081701517 0.8008900881
O  3.6334402561 -2.2530901432 0.0882500038
H  0.5529000759 -0.7876200676 -0.2322700173
H  0.5617300272 0.8402500153 -0.2949400246
H  2.7928302288 0.0383000039 -1.1148401499
H  2.5150802135 1.4088901281 1.6870101690
H  3.5595402718 1.9306601286 0.3557700217
H  4.3632507324 -0.0664800033 2.3691699505
H  5.1708402634 0.1621700227 -0.5589000583
H  5.9351005554 -0.8173900843 0.5330800414
H  2.4676003456 -1.4555201530 1.6212801933
H  4.2890300751 -1.8768202066 -0.5199600458
