13

C  0.8959000707 0.0632500052 -0.0080400007
C  2.3983104229 0.0122900009 -0.0050400002
C  3.0035202503 -1.3683700562 -0.0082900003
C  3.1390202045 1.1379899979 0.0000000000
C  4.5450205803 1.1379899979 0.0000000000
N  5.6960306168 1.1379899979 0.0000000000
H  0.5164800286 1.0904800892 -0.0072100004
H  0.4985000193 -0.4400100410 0.8796300888
H  0.5020500422 -0.4373500347 -0.8985300660
H  2.2282202244 -2.1411902905 0.0217900015
H  3.6431403160 -1.5158601999 0.8682100773
H  3.5927402973 -1.5309301615 -0.9169200659
H  2.6587703228 2.1107401848 0.0025200001
