17

C  4.2604603767 -1.9713401794 1.1405701637
C  3.1923701763 -0.9943701029 0.7114500999
N  1.9441401958 -1.2147401571 0.9869400263
N  3.5118801594 0.1419800073 0.0183500014
C  4.8091707230 0.7835700512 0.1959300190
C  6.0195302963 0.3462800384 -0.5784600377
C  5.3667001724 1.6603502035 -0.8908801079
H  4.8263306618 -2.2985501289 0.2637700140
H  3.8204205036 -2.8505902290 1.6188100576
H  4.9389305115 -1.4900901318 1.8499501944
H  1.8391802311 -2.0957202911 1.5003501177
H  2.6955401897 0.7399700880 -0.0835200027
H  4.9635200500 1.1312400103 1.2150300741
H  5.9077405930 -0.4561200440 -1.2980901003
H  6.9758601189 0.3597300053 -0.0693500042
H  5.8817200661 2.5671503544 -0.5972000360
H  4.8181505203 1.7401602268 -1.8222301006
