19

C  1.2639200687 0.9256100655 -0.3953800201
O  2.6199102402 0.7212400436 -0.0239300020
C  3.4111402035 1.8819001913 -0.2685000002
C  4.8092308044 1.5953501463 0.1724200100
C  5.8500504494 1.1205800772 -0.8126100302
C  5.9382305145 2.5110700130 -0.2374900132
C  7.0078902245 2.8547101021 0.7425200939
H  0.6989901066 0.0245400015 -0.1439500153
H  1.1862400770 1.0983201265 -1.4726700783
H  0.8363000751 1.7697401047 0.1538000107
H  3.0142602921 2.7234103680 0.3113300204
H  3.3719601631 2.1366803646 -1.3346501589
H  4.8314199448 1.1763001680 1.1723201275
H  5.5681800842 1.0164901018 -1.8544001579
H  6.5544505119 0.3681300282 -0.4741300344
H  5.7153701782 3.3435404301 -0.8959000707
H  7.2647905350 2.0066900253 1.3857001066
H  6.6797103882 3.6793503761 1.3821201324
H  7.9137206078 3.1697301865 0.2164400071
