14

C  1.4276800156 -0.5369100571 -0.0005600000
N  2.8228101730 -0.2168800086 0.1367300153
C  3.6542601585 -0.1124100089 -0.9505900741
O  3.3332901001 -0.3418700397 -2.1079401970
C  5.0402007103 0.2995800078 -0.6281200647
C  5.4459905624 1.7443101406 -0.7377800345
O  5.1904902458 1.1361700296 0.5363700390
H  1.0641701221 -0.9229700565 0.9541000724
H  1.2831801176 -1.2836301327 -0.7852400541
H  0.8838400245 0.3752400279 -0.2616600096
H  3.1742701530 0.1366000175 1.0203200579
H  5.7985105515 -0.4507000446 -0.8114900589
H  4.7230105400 2.4578700066 -1.1123300791
H  6.4745903015 1.9666601419 -0.9901600480
