17

N  3.3150801659 -1.3402501345 1.9665601254
C  2.5391702652 -1.1204001904 0.7439800501
C  2.3357503414 0.3660800159 0.4339200556
C  3.6283004284 1.1036300659 0.0842100084
N  4.5073904991 1.2024000883 1.2275201082
C  5.0095605850 2.3820002079 1.6986101866
O  4.8056902885 3.4920904636 1.2275000811
H  3.3797101974 -2.3460400105 2.1343502998
H  2.7872800827 -0.9682400823 2.7588603497
H  1.5604501963 -1.5998001099 0.8585401177
H  3.0459301472 -1.6104201078 -0.0943300053
H  1.8410000801 0.8590000868 1.2804000378
H  1.6537001133 0.4440300465 -0.4214800298
H  3.3928601742 2.1048402786 -0.2911800444
H  4.1746802330 0.5705400109 -0.7013900876
H  4.7001104355 0.3348300159 1.7242400646
H  5.6414904594 2.2294399738 2.5889801979
