14

C  1.4090201855 -0.3050800264 -1.0829601288
C  2.2824800014 -0.0133800013 -0.1075200066
C  3.0550403595 1.2834501266 0.0000000000
C  2.6611003876 2.0204000473 1.2619100809
C  2.0852103233 3.2314603329 1.2928800583
C  4.4748601913 1.0203000307 0.0000000000
N  5.6066002846 0.8105500937 0.0000000000
H  0.8916700482 -1.2607501745 -1.0963001251
H  1.1878401041 0.3912600279 -1.8866801262
H  2.4585802555 -0.7583400607 0.6679200530
H  2.8193001747 1.9124701023 -0.8690300584
H  2.8683602810 1.5224201679 2.2088701725
H  1.8536801338 3.7835104465 0.3867100477
H  1.8327001333 3.7009203434 2.2398002148
