14

N  1.4825501442 -0.1283500046 0.2102300078
C  2.8460402489 0.0021500001 -0.0465300046
C  3.5506403446 -1.2732501030 -0.4902600348
O  2.7922902107 -2.4038100243 -0.0566000044
C  3.4791002274 1.1760100126 0.1311100125
C  4.9147405624 1.4130001068 -0.1255800128
O  5.4220204353 2.5089101791 0.0838299990
H  0.9645900726 0.7481400967 0.1754400134
H  1.0477700233 -0.8489100337 -0.3719200194
H  4.5477304459 -1.3682600260 -0.0541400015
H  3.6207902431 -1.3130701780 -1.5813801289
H  2.3615002632 -2.1233103275 0.7741500735
H  2.9458303452 2.0540602207 0.4813700318
H  5.5015306473 0.5716100335 -0.5225800276
