16

C  1.0000001192 0.0000000000 0.0000000000
C  2.4440002441 0.0000000000 0.0000000000
C  3.6341602802 0.0000000000 0.0000000000
C  5.0781602859 0.0000000000 0.0000000000
C  5.4593005180 1.4474900961 0.0806100070
C  5.6297602654 2.1302101612 1.4146500826
N  6.7884306908 1.8057101965 0.5884100199
H  0.6060900688 1.0209101439 0.0119300010
H  0.6059499979 -0.5206900239 0.8781600595
H  0.6059100032 -0.5000600219 -0.8900500536
H  5.4745907784 -0.4381400347 -0.9217200875
H  5.4746603966 -0.5747800469 0.8440200686
H  5.1119904518 2.0282502174 -0.7672600150
H  5.5129904747 1.5456401110 2.3188400269
H  5.3647704124 3.1765103340 1.4975501299
H  7.1428008080 2.6399302483 0.1162000075
