15

C  1.1006400585 -0.0266700014 0.0633400083
C  2.4306902885 -0.0180600006 0.0339200050
O  3.2516703606 -1.1358901262 0.0978600085
C  4.5108704567 -0.3797700405 -0.0001400000
C  4.3854303360 0.7203600407 -1.1297301054
C  3.2998602390 1.1736000776 -0.0822900087
C  4.4505906105 0.8806400895 0.9527301192
H  0.5616000891 -0.9643700719 0.1465800107
H  0.5245100260 0.8892800212 0.0036400002
H  5.4036202431 -1.0062501431 0.0201500002
H  4.0158905983 0.3747800291 -2.0998301506
H  5.2426304817 1.3846101761 -1.2830700874
H  2.8648402691 2.1689200401 -0.1448000073
H  5.3129601479 1.5560501814 0.9485100508
H  4.1445803642 0.6895500422 1.9855802059
