14

C  0.9969900846 -0.5807400346 -0.0643700063
C  2.3424100876 0.1179200113 0.0265100021
C  2.2148003578 1.6268402338 -0.1146000102
O  1.1605200768 2.2178401947 0.1259900033
C  3.4300203323 2.3855903149 -0.5873200893
C  4.5518202782 2.1976401806 0.3276100159
N  5.4507102966 2.0275800228 1.0406200886
H  1.1251300573 -1.6656501293 0.0008500001
H  0.5003900528 -0.3502300084 -1.0130400658
H  0.3317100406 -0.2665000260 0.7464900613
H  2.9889101982 -0.2548300326 -0.7748700380
H  2.8154702187 -0.1021900028 0.9888700843
H  3.1739802361 3.4478402138 -0.6597900391
H  3.6787903309 2.0407900810 -1.5962400436
