15

N  -0.3294400275 0.8620300889 -0.8893100619
C  0.5793800354 1.2574501038 0.0513800010
N  0.2900800109 2.1748201847 0.9151100516
C  1.9682301283 0.6146300435 0.0757000074
O  1.9245001078 -0.6118600368 -0.6540000439
C  3.0802903175 -1.3379800320 -0.7123600245
C  4.2696900368 -1.0754700899 -0.1606100053
H  -0.0994200036 -0.0322500020 -1.3211001158
H  -1.3038500547 0.9316900969 -0.6267400384
H  -0.6541900635 2.5217001438 0.7310800552
H  2.2428901196 0.4352300167 1.1215901375
H  2.6685502529 1.3162400723 -0.3917200267
H  2.9133200645 -2.2315301895 -1.3055601120
H  4.4657101631 -0.1942700148 0.4387000501
H  5.0965704918 -1.7649201155 -0.3015200198
