16

C  1.0863600969 -0.0387200005 0.0591900051
N  2.5433502197 -0.0203000028 -0.0007500001
C  3.0910401344 1.0242000818 0.9033700228
C  4.1772103310 0.0068500005 1.3031101227
C  3.1219100952 -1.0537199974 0.9070200920
C  3.6130902767 -2.1874301434 0.1564500034
C  4.0188903809 -3.1370701790 -0.4572500288
H  0.7015800476 -0.9021500945 -0.4939400256
H  0.6827600598 0.8593300581 -0.4210400283
H  0.6853900552 -0.0839300081 1.0787701607
H  2.4439003468 1.3254400492 1.7377201319
H  3.4555003643 1.9227701426 0.3971500397
H  5.0726103783 0.0439400040 0.6698900461
H  4.4794702530 0.0203400031 2.3533201218
H  2.4839901924 -1.3420300484 1.7545300722
H  4.3784804344 -3.9772703648 -1.0066800117
