14

C  0.8360300660 -0.0515700057 -0.0063900002
C  2.3228602409 -0.0171700008 -0.0031000003
C  3.1910102367 1.0636000633 -0.0067400006
C  2.8237102032 2.5040402412 -0.0151000014
N  4.5369400978 0.7302000523 -0.0024300001
C  4.6708602905 -0.5764300227 0.0042300005
S  3.2192201614 -1.4826101065 0.0056400006
H  0.4137800336 0.9577500820 0.0015000001
H  0.4586800337 -0.5767400861 0.8770000935
H  0.4630600214 -0.5615100265 -0.9004900455
H  3.7165904045 3.1371102333 -0.0075900005
H  2.2250003815 2.7519104481 0.8670400381
H  2.2438402176 2.7459003925 -0.9113700986
H  5.6400003433 -1.0574401617 0.0085100010
