19

C  2.2250502110 -0.8099200726 -1.4258400202
C  2.7389402390 -0.2800399959 -0.0961200073
C  3.0469901562 1.1872601509 -0.1729300022
C  4.2635202408 1.7085702419 0.0562400036
C  4.5854005814 3.1674802303 -0.0005700001
O  5.1460599899 3.5309903622 1.2577000856
C  5.4694404602 4.9134802818 1.3049501181
H  1.9978501797 -1.8775601387 -1.3444200754
H  2.9704604149 -0.6813100576 -2.2174601555
H  1.3096201420 -0.2926000357 -1.7315300703
H  3.6246702671 -0.8533400297 0.2025000155
H  1.9788101912 -0.4396300614 0.6775800586
H  2.2146103382 1.8460601568 -0.4106000066
H  5.0940303802 1.0546500683 0.3097600043
H  3.6907804012 3.7693502903 -0.1972600222
H  5.3186502457 3.3464803696 -0.7952300906
H  5.8969006538 5.1337203979 2.2866501808
H  4.5702304840 5.5225000381 1.1714800596
H  6.2095904350 5.1606507301 0.5379700661
