19

C  0.8501300812 -0.1963400245 -0.0549500026
C  2.3586699963 0.0456500016 -0.1883100122
O  2.9852201939 -0.3904000521 1.0358401537
C  2.9706001282 -0.7619000673 -1.3621300459
N  2.7727000713 -2.2095799446 -1.2203100920
C  2.6837000847 1.5523201227 -0.3720600307
N  2.3543603420 2.3337101936 0.8316701055
H  0.3134100139 0.1308200061 -0.9509500861
H  0.4349300265 0.3292800188 0.8115000129
H  0.6300300360 -1.2560200691 0.1145300120
H  2.9050803185 0.3810600340 1.6355700493
H  4.0518803596 -0.5820500851 -1.3936301470
H  2.5464801788 -0.4353000522 -2.3175201416
H  2.9905602932 -2.4429402351 -0.2462300211
H  3.4598701000 -2.7016100883 -1.7879201174
H  2.1583702564 1.9636301994 -1.2407301664
H  3.7598102093 1.6726400852 -0.5420200229
H  1.3397301435 2.3872802258 0.9333500862
H  2.6625001431 3.2971501350 0.6914800406
