14

N  -0.2094500214 1.2407801151 0.9067400694
C  0.8420800567 1.5856401920 0.1087200120
O  0.8195000887 2.6207304001 -0.5524800420
C  2.0329201221 0.6292200685 0.1205400079
O  1.7201000452 -0.5769000649 0.8178500533
C  2.6987602711 -1.5271501541 0.8865000606
C  3.9388601780 -1.4987500906 0.3869800270
H  -0.2219400108 0.3414400220 1.3732202053
H  -1.0373001099 1.8195701838 0.9023401141
H  2.8619203568 1.1474001408 0.6163100600
H  2.2791402340 0.4048600495 -0.9233400822
H  2.3278400898 -2.3850703239 1.4386800528
H  4.3394103050 -0.6594000459 -0.1686000228
H  4.5990905762 -2.3490502834 0.5308000445
