16

C  0.7400700450 1.2785900831 -0.2017200142
C  -0.7251500487 1.2358301878 0.2199800164
C  -1.3831601143 -0.0559500046 -0.2475800216
O  -0.6645200253 -1.1924901009 0.2340400219
C  0.6768200397 -1.2279701233 -0.2554300129
C  1.4542201757 -0.0037100003 0.2103200108
H  0.8018300533 1.3964000940 -1.2905600071
H  1.2359200716 2.1474301815 0.2452700287
H  -1.2619000673 2.1030802727 -0.1783500016
H  -0.7751100659 1.2883101702 1.3146700859
H  -2.4031701088 -0.1169400141 0.1433700025
H  -1.4435601234 -0.0997400060 -1.3407400846
H  1.1478900909 -2.1376299858 0.1299200058
H  0.6633600593 -1.2996701002 -1.3493901491
H  1.5328102112 -0.0239500012 1.3042901754
H  2.4709901810 -0.0209500026 -0.1953300238
