18

C  0.6993800402 1.0719101429 -0.3989300430
N  -0.4320400357 0.2516600192 0.0295200031
C  0.8749700785 -0.3859900534 -0.0771600083
C  1.5742300749 -0.8926801085 1.1569900513
C  1.3381001949 -0.2524900138 2.5539300442
C  1.5552600622 -1.6551702023 3.1562201977
C  1.0999301672 -2.2264201641 1.7995002270
H  0.7104500532 1.3808400631 -1.4361701012
H  1.0461100340 1.8079601526 0.3147400320
H  -1.0245200396 0.0015800002 -0.7644301057
H  1.0144701004 -1.0814601183 -0.8968700767
H  2.6519601345 -0.9333200455 0.9299300909
H  0.3279200196 0.1391200125 2.7212502956
H  2.0648601055 0.5065600276 2.8555903435
H  2.6009602547 -1.8739901781 3.3993003368
H  0.9277700186 -1.9077001810 4.0142002106
H  1.6244601011 -3.1260302067 1.4667100906
H  0.0191200022 -2.4000103474 1.7332401276
