13

C  0.9351700544 -0.0095900008 0.0433500037
C  2.4479200840 0.0215900000 0.0038100001
C  3.1441204548 1.0143500566 0.9413600564
O  4.0073003769 -0.0291600022 1.4585701227
C  3.1841404438 -1.0411701202 0.8298701048
H  0.5535500646 -0.8691000342 -0.5172900558
H  0.5205000639 0.8967700601 -0.4087300301
H  0.5568900704 -0.0797400028 1.0681501627
H  2.8240001202 0.0847400054 -1.0252701044
H  2.5298402309 1.4452000856 1.7384201288
H  3.7133402824 1.8044902086 0.4439400136
H  3.7808604240 -1.7502601147 0.2501100302
H  2.5875003338 -1.5789701939 1.5732800961
