18

N  1.4884400368 -0.0405700058 -0.9456900358
C  2.6118102074 -0.0498100035 -0.0211400017
C  3.1215300560 1.3413400650 0.1549200118
C  4.3804202080 1.7305401564 -0.1085400134
C  4.9050006866 3.0874202251 0.0677800104
C  5.7227706909 3.6913602352 -1.0442800522
C  4.3414001465 4.2072801590 -0.7666600347
H  1.1664201021 -0.9965000749 -1.0851000547
H  1.8178801537 0.2810500264 -1.8552801609
H  3.3904900551 -0.7220700979 -0.3948000371
H  2.2787301540 -0.4350400567 0.9483700395
H  2.4081101418 2.0725302696 0.5294800401
H  5.0899705887 0.9894601107 -0.4722600281
H  5.2022900581 3.3258402348 1.0841200352
H  5.8739800453 3.1258201599 -1.9566901922
H  6.5631303787 4.3188705444 -0.7702700496
H  4.2447905540 5.1823005676 -0.3019399941
H  3.5617201328 3.9849503040 -1.4869201183
