17

C  1.4078001976 2.7052001953 -1.3485600948
O  1.8898800611 2.4867501259 -0.0298800040
C  2.8694801331 1.4515001774 0.0043000001
O  4.0481104851 1.7812100649 -0.7237100601
C  4.8680701256 2.7590203285 -0.0548300035
C  6.1935501099 2.2581501007 0.4453200400
C  6.1320905685 3.1248300076 -0.7786800265
H  0.6001500487 3.4416503906 -1.3008201122
H  1.0074000359 1.7803200483 -1.7761900425
H  2.1996703148 3.1053001881 -1.9886602163
H  2.4498503208 0.5271300673 -0.4084100425
H  3.1243500710 1.2538901567 1.0517001152
H  4.3791003227 3.5577003956 0.4978700578
H  6.4269704819 1.2092201710 0.3096100390
H  6.5868506432 2.6911501884 1.3563300371
H  6.4820103645 4.1476202011 -0.6987200379
H  6.3155202866 2.6640102863 -1.7424302101
