13

C  0.9972800612 0.1041000113 -0.1291100085
N  2.4506201744 0.0708200037 -0.0416000038
C  3.1522400379 -1.1207300425 -0.1307400018
C  2.6135900021 -2.3330702782 -0.3000100255
C  3.1219203472 1.2774100304 0.1363600194
O  2.6146402359 2.3887803555 0.2295400202
H  0.6078500748 1.1224200726 -0.0429300033
H  0.5724400282 -0.4937200248 0.6835400462
H  0.6836800575 -0.3002800047 -1.0967900753
H  4.2358403206 -1.0423201323 -0.0539500043
H  1.5470302105 -2.5039000511 -0.3859400153
H  3.2530102730 -3.2089803219 -0.3577700257
H  4.2167301178 1.1524200439 0.1911900192
