12

C  0.9013700485 -0.0498500019 0.0054100007
C  2.3741302490 0.0276200008 0.0023600000
C  3.1651704311 1.1468700171 0.0026000002
O  2.9296803474 2.4458301067 0.0052600005
O  4.4761805534 0.8037700653 -0.0006800001
N  4.5799202919 -0.5812200308 -0.0031200002
C  3.3183503151 -1.0233200788 -0.0012100000
H  0.5588800311 -1.0897101164 -0.0065900004
H  0.4870900512 0.4521600306 -0.8749300838
H  0.4922600389 0.4302000403 0.9002800584
H  3.8163101673 2.8476202488 0.0040700003
H  3.1439101696 -2.0906701088 -0.0025000002
