16

C  0.9250600934 -0.0296700019 0.1775600016
C  2.4302601814 0.0562600046 -0.0231900029
C  3.1585001945 1.1084901094 0.8483600616
C  4.1579804420 -0.0125400014 1.1673700809
N  3.1423802376 -0.9953100681 0.7430600524
C  2.8114399910 0.0236000009 -1.4246500731
C  3.1271202564 -0.0043200003 -2.5840501785
H  0.6590400338 -0.0638400018 1.2401601076
H  0.5066900253 -0.9261600375 -0.2948700190
H  0.4230100214 0.8429800868 -0.2555600107
H  2.5918700695 1.4537800550 1.7218501568
H  3.5741002560 1.9806501865 0.3350300193
H  5.0565605164 -0.0058600004 0.5395700336
H  4.4596304893 -0.0906400084 2.2154703140
H  3.5044901371 -1.7585701942 0.1740100235
H  3.4052302837 -0.0293000024 -3.6126003265
