16

C  1.0300501585 -0.1486400068 -0.1350500137
C  2.5304303169 0.0424800031 0.0358900018
O  3.2336502075 -0.7413901091 -0.9165100455
C  2.8897602558 1.5318201780 -0.0375300013
C  2.9234802723 2.1993000507 -1.3936101198
N  3.1323101521 2.1606402397 1.0770699978
O  3.4430501461 3.5057702065 0.8493601084
H  0.4686900377 0.4257200360 0.6085900068
H  0.7658400536 -1.2067800760 -0.0373000018
H  0.6994900703 0.1693100184 -1.1298999786
H  2.8226201534 -0.3255400360 1.0261601210
H  2.8153202534 -0.6266300082 -1.7856501341
H  2.5377800465 1.5356501341 -2.1702702045
H  3.9553804398 2.4655902386 -1.6382100582
H  2.3057000637 3.1015400887 -1.3812900782
H  3.6354103088 3.8313503265 1.7487901449
