15

C  1.0000001192 0.0000000000 0.0000000000
C  2.4440002441 0.0000000000 0.0000000000
C  3.6341602802 0.0000000000 0.0000000000
C  5.0781602859 0.0000000000 0.0000000000
C  5.6195302010 1.4025701284 -0.0439800024
N  6.4145507812 1.8426401615 0.8828200698
N  6.8062906265 3.1191704273 0.6630600691
H  0.6060100794 1.0208901167 0.0116500007
H  0.6059200764 -0.5204800367 0.8782700896
H  0.6059200764 -0.5003100634 -0.8899201155
H  5.4573206902 -0.5213200450 -0.8854100704
H  5.4702005386 -0.5141300559 0.8837100863
H  5.3224205971 2.0251700878 -0.9095100760
H  6.8715806007 3.6000504494 1.5660501719
H  7.7782206535 3.1229901314 0.3377800286
