17

C  1.1823501587 -0.4947500527 -0.3423000276
C  2.6326303482 -0.4591100216 0.0800900012
N  3.2067604065 -1.5392301083 0.5009700656
N  3.2859201431 0.7423700690 0.0386000015
C  4.7378902435 0.8857401013 0.0914300084
C  5.3040304184 0.5971400738 1.4872601032
O  5.4553704262 -0.7996400595 1.7225100994
H  0.9662500620 0.3136600256 -1.0462300777
H  0.5510200858 -0.3770200312 0.5429500341
H  0.9512300491 -1.4500300884 -0.8223100305
H  2.5475103855 -2.3271703720 0.4708900154
H  2.8126201630 1.5007500648 -0.4413300455
H  4.9737000465 1.9234402180 -0.1688000113
H  5.1998000145 0.2379200161 -0.6616100073
H  4.6687407494 1.0163600445 2.2744100094
H  6.2998800278 1.0421700478 1.5783801079
H  4.6332502365 -1.2161400318 1.3632501364
