18

C  1.0050500631 -0.0651300028 0.8562600613
C  2.3741703033 -0.0501900055 0.2011700273
C  3.0273501873 1.3194100857 0.2524800003
O  2.4019002914 2.3369402885 0.5591000319
C  4.4956402779 1.3718100786 -0.1760800183
N  5.1720404625 2.5609202385 0.3678800166
C  5.4626307487 2.4119501114 1.7898701429
H  0.5840800405 -1.0750000477 0.8369100690
H  0.3120400012 0.6042900681 0.3362600505
H  1.0661500692 0.2609300315 1.9000500441
H  2.2929201126 -0.3520800173 -0.8478900790
H  3.0254702568 -0.7604100704 0.7212300897
H  4.5137205124 1.4196401834 -1.2698301077
H  5.0131907463 0.4572200477 0.1311600059
H  4.5314202309 3.3538601398 0.2554500103
H  6.1282105446 1.5612201691 1.9689000845
H  4.5534300804 2.2839603424 2.3859200478
H  5.9738607407 3.3096604347 2.1511001587
