16

C  1.6871801615 -0.5749600530 -1.0757400990
C  2.9244201183 -0.5168200731 -0.1979200095
N  3.3108100891 0.8485000730 0.0916200057
C  4.0994706154 1.5704101324 -0.7704800367
O  4.5698800087 1.1313500404 -1.8122200966
C  4.3270502090 2.9640603065 -0.3103900254
C  5.0616002083 3.8100502491 -1.0441200733
H  1.4024001360 -1.6141000986 -1.2642301321
H  1.8628401756 -0.0869800076 -2.0396401882
H  0.8440200686 -0.0688600019 -0.5948100090
H  3.7573001385 -1.0333000422 -0.6873200536
H  2.7311902046 -1.0093200207 0.7605600953
H  2.9105503559 1.2940000296 0.9044400454
H  3.8910903931 3.2820904255 0.6270200610
H  5.5069503784 3.5023603439 -1.9868901968
H  5.2343606949 4.8289299011 -0.7158700228
