19

C  0.8238300681 -0.4731400311 0.2084800154
C  2.3211801052 -0.3512000144 -0.0774300024
C  2.7625102997 -1.4864801168 -1.0052000284
C  2.6927402020 1.0069301128 -0.7014999986
C  2.4207701683 2.1946902275 0.2237700224
N  2.8642401695 3.4349303246 -0.4050400257
H  0.5044200420 0.2412700206 0.9731701016
H  0.5790500641 -1.4743300676 0.5801500082
H  0.2310500145 -0.2946100235 -0.6952500343
H  2.8622601032 -0.4634700418 0.8706300259
H  2.2546901703 -1.4281501770 -1.9741702080
H  2.5365703106 -2.4622302055 -0.5622700453
H  3.8420202732 -1.4453200102 -1.1847500801
H  2.1453700066 1.1418701410 -1.6441801786
H  3.7606003284 0.9942600727 -0.9589900374
H  2.9465701580 2.0620203018 1.1751801968
H  1.3519002199 2.2817101479 0.4382800460
H  3.8671205044 3.3910202980 -0.5822600722
H  2.7220401764 4.2104201317 0.2409600168
