16

C  1.0428200960 0.0092900004 -0.0655800030
C  2.5327904224 -0.0222100019 -0.0228600018
C  3.3582003117 -0.7600200772 -1.0458700657
N  2.7278501987 -1.5085201263 -2.1328403950
C  3.3308403492 0.7518900037 -1.0368001461
N  4.5030803680 1.5105302334 -0.5981299877
H  0.6650900841 0.7650300860 0.6312100291
H  0.6343900561 -0.9615200758 0.2350800186
H  0.6546100378 0.2518000007 -1.0609201193
H  2.8878102303 -0.0626300052 1.0014901161
H  4.2697305679 -1.2286601067 -0.6788600087
H  1.9480401278 -0.9991300702 -2.5428502560
H  2.3496601582 -2.3900501728 -1.7908900976
H  2.7875001431 1.2297800779 -1.8495601416
H  5.0156502724 1.0204200745 0.1334500015
H  4.2234802246 2.4065201283 -0.2006300241
