17

C  1.1828200817 -0.6677500606 0.2350800186
C  2.6590001583 -0.5488600135 0.5791300535
N  3.2597403526 0.5448800325 -0.1839900017
C  4.6872000694 0.6707100272 0.1320600063
C  5.2537302971 1.8055500984 -0.6858500242
N  5.6889705658 2.8856902122 -0.1200000122
O  6.1574406624 3.7579803467 -1.1091700792
H  0.7276800275 -1.4849500656 0.8047400713
H  1.0398701429 -0.8801300526 -0.8305700421
H  0.6410500407 0.2535000145 0.4771500528
H  3.1558902264 -1.4954900742 0.3405300081
H  2.7635602951 -0.3695200384 1.6549001932
H  2.7929801941 1.4210001230 0.0606700033
H  5.2267503738 -0.2390900254 -0.1495800018
H  4.8421602249 0.8741600513 1.1969300508
H  5.2738204002 1.6719001532 -1.7829900980
H  6.4617104530 4.5242805481 -0.5877700448
