15

C  -1.6501201391 0.7057000995 0.3171299994
C  -1.5384001732 -0.7088500857 -0.4273900092
C  -0.1186500043 -0.6732000709 0.1154500097
O  1.1841000319 -0.9209200740 -0.4302600324
C  1.9633201361 0.2533800304 -0.0055900007
O  1.0136001110 1.3023501635 0.3943300247
C  -0.2252100110 0.8736100793 -0.1859700233
H  -2.3909702301 1.3877700567 -0.1064600125
H  -1.7722400427 0.6662901044 1.4048501253
H  -1.6349800825 -0.6852300763 -1.5185000896
H  -2.1862702370 -1.4905101061 -0.0232000016
H  -0.0992000103 -0.9410900474 1.1845301390
H  2.5835101604 -0.0150600011 0.8533700705
H  2.5627200603 0.6078600287 -0.8475100398
H  -0.2144200206 1.1435501575 -1.2552201748
