14

O  0.3186300397 0.0832400024 0.3710800409
C  1.6360501051 -0.3709000349 0.0846100077
C  2.5841901302 0.8129900694 -0.0671800002
O  3.8922302723 0.3151200414 -0.3531300426
C  4.8869204521 1.2345800400 -0.5220000148
C  4.8221302032 2.5689001083 -0.4587500393
H  -0.2392600179 -0.7091500759 0.4580800533
H  1.6162301302 -0.9649201035 -0.8357200623
H  1.9712001085 -1.0270200968 0.8953601122
H  2.5878503323 1.3953101635 0.8622601032
H  2.2308499813 1.4580000639 -0.8811401129
H  5.8178100586 0.7181900144 -0.7315800786
H  3.9070804119 3.1099603176 -0.2517100275
H  5.7174201012 3.1625702381 -0.6193800569
