13

O  4.1514101028 2.2536101341 -2.8683402538
C  3.2956502438 2.7041702271 -2.1235599518
O  3.3316001892 2.7220501900 -0.7697700262
C  4.5097498894 2.1518399715 -0.1700500101
C  5.6939105988 3.1188302040 -0.2045300156
C  5.4459004402 4.3117899895 0.6236400008
C  5.2415800095 5.2902402878 1.2894800901
H  2.3576800823 3.1692502499 -2.4634802341
H  4.7643103600 1.2097301483 -0.6709700823
H  4.2494602203 1.8996301889 0.8644300699
H  5.9020504951 3.4368102551 -1.2315301895
H  6.5868306160 2.6031801701 0.1665700078
H  5.0563402176 6.1614704132 1.8747800589
