13

C  0.8400400281 -0.0124000013 0.0811600089
N  2.2880401611 -0.0041000000 0.1815900058
O  2.8341302872 -1.2119500637 -0.2862900496
C  3.0307602882 1.1186801195 -0.1184500083
N  2.6815502644 2.3539001942 -0.1712100059
C  4.4450502396 0.9996300340 -0.3890500367
C  5.6214904785 0.9021600485 -0.6124400496
H  0.4022200406 0.7742100358 0.7034300566
H  0.4372600317 -0.9687600732 0.4316400290
H  0.5230600238 0.1380100101 -0.9560800195
H  3.5967302322 -1.3576201200 0.3066700101
H  1.6902400255 2.4430501461 0.0465400033
H  6.6643404961 0.8343800306 -0.8169400692
