13

C  0.9452300668 -0.0126000009 0.1328500062
C  2.4517600536 0.0561800040 0.0222100019
C  3.1817102432 1.1257500648 0.8679800630
C  4.0230402946 -0.0658000037 1.3573700190
O  5.0963006020 -0.2578100264 1.8718801737
N  3.1042602062 -0.9509800673 0.8764801025
H  0.5617900491 -0.9130901098 -0.3576200306
H  0.4871400297 0.8525400758 -0.3561000228
H  0.6090200543 -0.0257100016 1.1760100126
H  2.8069403172 -0.0095600011 -1.0134000778
H  2.6012902260 1.6043001413 1.6615300179
H  3.7390203476 1.8711000681 0.2969600260
H  3.4339301586 -1.8735401630 0.6260800958
