19

C  2.5950102806 -0.9101800919 -0.4024700224
N  2.2286601067 0.3271600306 0.2722900212
C  3.3108503819 1.3199001551 0.2422900200
C  3.4389202595 2.2455801964 -0.9338700771
C  3.0080401897 2.8056800365 0.3968200386
C  1.5754901171 3.2649400234 0.5219600201
N  3.9770302773 3.6330702305 1.1446400881
H  1.7523502111 -1.6078901291 -0.3730400205
H  3.4510302544 -1.3903502226 0.0830300078
H  2.8390502930 -0.7293100357 -1.4544800520
H  1.9655702114 0.1206400096 1.2355800867
H  4.2428202629 0.9721100926 0.6848500371
H  2.7015900612 2.1729199886 -1.7261201143
H  4.4342007637 2.4730901718 -1.2967500687
H  0.8973700404 2.7086501122 -0.1334900111
H  1.4916701317 4.3243904114 0.2557400167
H  1.2265501022 3.1422600746 1.5529600382
H  4.9324202538 3.3108804226 0.9981001019
H  3.8025002480 3.5562603474 2.1461601257
