15

C  1.2942000628 -0.4396800399 0.9056100249
C  2.1429202557 -0.0396100022 -0.0508400053
C  3.1756002903 1.0396400690 0.1284300089
C  4.5796103477 0.5256100297 -0.0973200053
C  5.3525099754 0.1061900109 0.9180200696
C  5.1222105026 0.5251900554 -1.4191901684
C  5.5792903900 0.5317900181 -2.5289101601
H  0.5700000525 -1.2250201702 0.7115100622
H  1.3028401136 -0.0002800000 1.8982301950
H  2.0925002098 -0.5100100040 -1.0309300423
H  3.0971403122 1.4827700853 1.1299501657
H  2.9614601135 1.8551301956 -0.5740600824
H  4.9837903976 0.0969100073 1.9387100935
H  6.3657402992 -0.2492400110 0.7548600435
H  5.9886407852 0.5384500623 -3.5124702454
