10

C  1.0169100761 -0.0204600021 -0.0006700000
S  2.7837803364 -0.1313800067 0.0107800001
O  3.2964003086 -0.5359500051 1.2977900505
O  3.3120102882 -0.5504500270 -1.2653501034
C  3.3674201965 1.5561201572 0.0046800002
C  3.7620804310 2.6916301250 0.0003200000
H  0.7005500793 0.5045900345 -0.9036800861
H  0.6892600656 0.5101800561 0.8950001001
H  0.6159100533 -1.0360400677 -0.0000800000
H  4.1276702881 3.6919302940 -0.0035300003
