17

C  6.7149405479 -0.2151600122 0.8928900957
N  6.1179504395 1.1088500023 0.7505300045
N  4.8719201088 1.1269000769 0.2201100141
C  4.4234805107 2.3218200207 -0.0016200001
C  3.0601203442 2.5308103561 -0.6103300452
C  2.1861500740 3.2326703072 0.3859300315
C  1.6399301291 4.4389305115 0.1892600060
H  7.7319507599 -0.1228600144 1.2846900225
H  6.7719106674 -0.7210000753 -0.0758900121
H  6.1330904961 -0.8347500563 1.5826300383
H  6.1434607506 1.5771201849 1.6600601673
H  5.0156307220 3.2294402122 0.2207400203
H  2.6171202660 1.5663701296 -0.8775700331
H  3.1866004467 3.1209304333 -1.5239101648
H  1.9805500507 2.7043602467 1.3155801296
H  1.8010702133 5.0004005432 -0.7271800637
H  1.0026900768 4.8917703629 0.9443800449
