15

C  4.4856801033 -1.8935301304 -0.9602600336
N  3.9802503586 -0.8186901212 -0.4562200606
N  4.9110403061 0.2146500200 -0.4792200625
C  4.4098906517 1.2907401323 0.0274700020
C  5.2711801529 2.4887902737 0.0870400071
C  5.4886703491 3.3177802563 -1.1552000046
C  4.6604003906 3.8639101982 -0.0296200011
H  3.8787503242 -2.8098001480 -1.0182900429
H  5.5174703598 -1.9503401518 -1.3465001583
H  3.3817002773 1.3592901230 0.4227600098
H  6.1186804771 2.3866600990 0.7581601143
H  4.9826502800 3.0182802677 -2.0664300919
H  6.4762406349 3.7348701954 -1.3150501251
H  5.0844502449 4.6585006714 0.5739700198
H  3.5909602642 3.9498603344 -0.1862100214
