14

C  0.9386200309 0.0310000014 -0.0083000008
C  2.4230000973 -0.0031100002 -0.0004000000
C  3.2811403275 1.0796700716 0.0035900003
N  4.5678400993 0.6086600423 0.0104800016
C  4.5561003685 -0.7585000396 0.0108900014
O  5.7007408142 -1.4259701967 0.0170700010
C  3.2433202267 -1.1686100960 0.0042000003
H  0.5638700128 1.0592200756 0.0015100001
H  0.5408400893 -0.4843200445 0.8716700673
H  0.5510400534 -0.4639800191 -0.9042600989
H  3.0869302750 2.1440901756 0.0021500001
H  5.4078707695 1.1689301729 0.0146300010
H  5.4752602577 -2.3731801510 0.0162400007
H  2.8976502419 -2.1940200329 0.0027200002
