13

C  1.1097801924 0.0043900004 -0.1310000122
N  2.5457000732 0.0083500007 -0.2530000210
C  3.3075902462 -1.1955901384 0.0675600097
C  4.6446099281 -0.5693399906 0.4951500595
O  5.6391901970 -1.2101601362 0.8070900440
N  4.5292501450 0.8130700588 0.5065200329
C  3.3281002045 1.0692499876 0.0989300087
H  0.6926800609 -0.9467200637 -0.4787400365
H  0.6728100777 0.8041200638 -0.7375800610
H  0.8083500862 0.1534600109 0.9112200737
H  3.4464902878 -1.8228000402 -0.8157700300
H  2.8760001659 -1.7490401268 0.9055100679
H  2.8779501915 2.0728900433 0.0286400020
