16

C  1.7312600613 -1.7794601917 -0.7787600160
C  1.9561201334 -0.9028400779 0.4450200498
C  3.3419301510 -0.2597700357 0.4542000294
N  4.4180202484 -1.2332900763 0.5897400379
O  4.4175705910 -1.8641901016 1.8587301970
C  5.6930203438 -0.9284700751 0.1512800157
O  5.9861302376 -0.0825500041 -0.6854300499
H  0.7105800509 -2.1753902435 -0.7770800591
H  2.4213001728 -2.6290700436 -0.7924700975
H  1.8708901405 -1.2075901031 -1.7019300461
H  1.8036601543 -1.5008500814 1.3505101204
H  1.1994601488 -0.1098500118 0.4527000189
H  3.4243702888 0.4426600337 1.2921700478
H  3.4923400879 0.3156900108 -0.4666600227
H  4.0991206169 -2.7572002411 1.6284601688
H  6.4534006119 -1.5913501978 0.5965500474
