17

C  0.9917600751 0.0002900000 0.0412200019
C  2.5227801800 -0.0052300002 -0.0256000012
C  3.0329902172 -1.3296701908 -0.5913300514
O  2.6912002563 -1.4569901228 -1.9671601057
C  3.2064802647 -0.3675900400 -2.7225301266
O  2.6857602596 0.8802201152 -2.2831301689
C  3.0269401073 1.1245200634 -0.9225401282
H  0.6289000511 0.9463500977 0.4558900297
H  0.6326400638 -0.8067300916 0.6880800128
H  0.5361100435 -0.1313300133 -0.9451900721
H  2.9094903469 0.1330000013 0.9911300540
H  2.5964002609 -2.1776001453 -0.0529800057
H  4.1219601631 -1.4048801661 -0.4858700335
H  4.3032002449 -0.3614900112 -2.6950502396
H  2.9008002281 -0.5091200471 -3.7639801502
H  4.1156301498 1.2300001383 -0.8415400982
H  2.5860903263 2.0825102329 -0.6283800602
