16

C  -1.2445501089 -0.0016500001 0.9819300771
C  -0.6087600589 -1.0086500645 -0.0010500001
C  0.8958500624 -1.2152301073 0.2527300119
N  1.6762201786 -0.0003300000 -0.0933800042
C  0.8973700404 1.2132101059 0.2565500140
C  -0.6080500484 1.0082300901 0.0017100001
O  -0.8203700781 0.0018100002 -1.0727101564
H  -0.8667800426 -0.0031400004 2.0068500042
H  -2.3389999866 -0.0010200001 0.9900600910
H  -1.1883301735 -1.9212901592 -0.1635100096
H  1.0739200115 -1.4830201864 1.3002001047
H  1.2663100958 -2.0450100899 -0.3593000472
H  1.7424401045 0.0007900001 -1.1163401604
H  1.2675701380 2.0443100929 -0.3526400328
H  1.0748800039 1.4774401188 1.3047600985
H  -1.1871100664 1.9221101999 -0.1575500220
