12

C  1.0000001192 0.0000000000 0.0000000000
C  2.4440002441 0.0000000000 0.0000000000
C  3.6341602802 0.0000000000 0.0000000000
C  5.0664205551 -0.0590400063 -0.0905300081
N  5.6240301132 1.0999100208 -0.0141600007
N  6.9745306969 1.0555400848 -0.1348000169
H  0.6059499979 1.0208600760 0.0116800005
H  0.6059100032 -0.5205300450 0.8782400489
H  0.6059300303 -0.5003000498 -0.8899300694
H  5.5714802742 -1.0290000439 -0.2329300046
H  7.3492007256 2.0054101944 -0.0717400014
H  7.4093108177 0.5371300578 0.6321499944
