17

C  -1.4223901033 0.7219900489 0.1650600135
C  -1.4544200897 -0.7727700472 -0.1199000105
O  -0.2823500037 -1.4594200850 0.3074100018
C  0.8528600335 -1.1759400368 -0.5067300200
C  1.6504201889 0.0239900015 0.0049500004
O  0.9410400987 1.2329500914 0.2619100213
C  -0.2483000159 1.4422900677 -0.4832800329
H  -2.3600702286 1.1621201038 -0.1941100061
H  -1.3732300997 0.8708800673 1.2505501509
H  -1.6363400221 -0.9688900709 -1.1835401058
H  -2.2963299751 -1.2143601179 0.4255500138
H  1.5005800724 -2.0592901707 -0.4779700339
H  0.5560400486 -1.0439800024 -1.5541601181
H  2.1334502697 -0.2458000183 0.9498700500
H  2.4504401684 0.2532100379 -0.7066700459
H  -0.4460700452 2.5198802948 -0.4440100491
H  -0.1132800058 1.1855200529 -1.5405601263
