15

O  3.0018901825 3.1359901428 -1.0820301771
C  2.3643403053 2.2866404057 -0.4682600498
C  2.9802100658 1.0948001146 0.2090800107
C  4.4836401939 1.0069301128 0.0275400020
C  5.3600306511 2.0054299831 0.8000300527
C  6.0848302841 0.7617000341 1.3043200970
O  5.0291700363 -0.0983700082 0.8056800961
H  1.2673401833 2.3647902012 -0.3766900301
H  2.5016000271 0.2029500157 -0.2100200057
H  2.7154502869 1.1465300322 1.2710100412
H  4.7733702660 0.8926801085 -1.0254800320
H  4.8471107483 2.5738701820 1.5811101198
H  5.9597802162 2.6775703430 0.1819700152
H  7.0386304855 0.5397600532 0.8163700104
H  6.1919903755 0.6896900535 2.3896400928
