15

C  1.0000001192 0.0000000000 0.0000000000
C  2.4440002441 0.0000000000 0.0000000000
C  3.6341602802 0.0000000000 0.0000000000
C  5.0781602859 0.0000000000 0.0000000000
O  5.5630006790 1.2625101805 0.4608700275
C  6.9186706543 1.4293900728 0.5183800459
C  7.8920507431 0.5666300654 0.2002700120
H  0.6059700847 1.0208400488 0.0137200011
H  0.6059300303 -0.5222700238 0.8772200346
H  0.6059200764 -0.4985300303 -0.8909201026
H  5.4436602592 -0.1843700260 -1.0173701048
H  5.4443001747 -0.7964000702 0.6589800119
H  7.1372604370 2.4277000427 0.8828500509
H  7.7060604095 -0.4343600571 -0.1652400047
H  8.9311904907 0.8638400435 0.3060100079
