13

O  1.1464200020 0.0015400001 -0.0832700059
N  2.5194902420 0.0104300007 -0.2787900269
C  3.1944901943 -1.0535900593 0.2486400157
N  4.4133605957 -0.8566200137 0.6719400287
C  4.6029601097 0.6223600507 0.4558200240
C  3.2752103806 1.1368700266 -0.0761200115
C  2.9587101936 2.4257402420 -0.2436400205
H  0.8280300498 0.5733800530 -0.8032300472
H  2.6623001099 -2.0166301727 0.2801600397
H  4.8572402000 1.0903801918 1.4128201008
H  5.4100308418 0.7770300508 -0.2678900361
H  3.6726601124 3.2085402012 -0.0167699996
H  1.9838401079 2.7278401852 -0.6107100844
