21

C  1.9075901508 -0.9405000806 2.3086903095
C  1.7990601063 -0.1681200117 0.9988501072
C  2.5854201317 1.1646699905 0.9556900859
C  2.0826902390 2.1863303185 2.0149803162
N  0.6578100324 2.5032901764 1.8811801672
N  4.0280504227 0.8662500978 1.0784100294
C  4.8826904297 2.0206401348 0.8331400156
H  1.3439000845 -1.8764101267 2.2365202904
H  1.4942600727 -0.3722200394 3.1470501423
H  2.9460203648 -1.1960300207 2.5413403511
H  0.7393000722 0.0222700015 0.7904000878
H  2.1477501392 -0.8175300360 0.1849700212
H  2.4120402336 1.5951501131 -0.0404600017
H  2.6328504086 3.1284203529 1.9184100628
H  2.2709000111 1.8114701509 3.0266101360
H  0.4936000407 2.9503803253 0.9809400439
H  0.4035600424 3.1882803440 2.5915303230
H  4.2656903267 0.1345600039 0.4071900547
H  4.8138103485 2.7503101826 1.6439300776
H  4.6462702751 2.5067400932 -0.1184900105
H  5.9253106117 1.6922402382 0.7899500728
