14

N  1.0000001192 0.0000000000 0.0000000000
C  2.1510102749 0.0000000000 0.0000000000
C  3.5570101738 0.0000000000 0.0000000000
C  4.3221602440 -1.0977101326 -0.0717100054
C  5.7756104469 -0.7592200637 -0.0533400029
C  5.7728004456 0.7454200387 -0.3193900287
C  4.3842506409 1.2431601286 0.0808899999
H  3.9507503510 -2.1137402058 -0.1211000085
H  6.2093605995 -0.9961600304 0.9230100513
H  6.3293504715 -1.2953600883 -0.8294100761
H  5.9370903969 0.9314100742 -1.3902901411
H  6.5704407692 1.2631800175 0.2232500166
H  4.0377302170 2.0250201225 -0.6020300388
H  4.3844604492 1.6373802423 1.1025100946
