18

N  1.2364001274 -0.2578999996 -0.4800700247
C  2.6925201416 -0.1796200126 -0.2981500328
C  3.1145501137 1.2931801081 -0.1483800113
O  2.3258402348 1.8927801847 0.8887701035
C  4.6008605957 1.4248701334 0.1944600046
C  5.0236701965 2.8813402653 0.3668600023
O  4.4342603683 3.4523603916 1.5273500681
H  0.9647901058 -1.2404401302 -0.5411100388
H  0.9851500988 0.1522200108 -1.3809601068
H  3.2064702511 -0.6492600441 -1.1431400776
H  2.9444901943 -0.7349100709 0.6122000813
H  2.8967301846 1.8366101980 -1.0756701231
H  1.4581900835 1.4358000755 0.8247400522
H  5.2020401955 0.9620500803 -0.5959800482
H  4.8006901741 0.8938700557 1.1335000992
H  4.7387199402 3.4828002453 -0.5022600293
H  6.1097803116 2.9455201626 0.4822100103
H  3.5036001205 3.1371302605 1.5475101471
