18

C  1.0550501347 -0.2015700191 -0.1387100071
C  2.5752403736 -0.1210800111 -0.1133100092
C  3.0825903416 1.2770299911 0.2578000128
O  2.6202201843 1.6054000854 1.5686200857
C  4.5904202461 1.3310101032 0.2149000168
C  5.3640503883 2.3656902313 0.9946600795
N  5.3524603844 0.9635601044 1.4142001867
H  0.7368100882 -1.2099000216 -0.4198100269
H  0.6383900642 0.5018800497 -0.8660400510
H  0.6268800497 0.0233600009 0.8434000611
H  2.9672801495 -0.4128000438 -1.0946401358
H  2.9453504086 -0.8545400500 0.6133400202
H  2.6756002903 2.0212702751 -0.4360700250
H  3.2778103352 1.2025300264 2.1708900928
H  4.9929203987 1.0242301226 -0.7441101074
H  4.8246302605 3.0583102703 1.6296200752
H  6.2932801247 2.7413401604 0.5844000578
H  6.2279906273 0.5021500587 1.1560201645
