19

C  0.5673800111 -0.2044200152 -0.9920200706
C  1.9791301489 -0.5200800300 -0.5244900584
C  2.6976900101 0.7331100702 -0.0250400007
C  4.1104502678 0.4070000350 0.4605900347
C  4.8355002403 1.6590101719 0.9431300759
C  6.2281107903 1.3654900789 1.4463001490
O  6.7438802719 0.2520900071 1.4680800438
H  0.0755500123 -1.1132900715 -1.3527600765
H  0.5777600408 0.5236900449 -1.8094600439
H  -0.0340800025 0.2052600086 -0.1741200238
H  2.5413103104 -0.9652400613 -1.3535600901
H  1.9338201284 -1.2680500746 0.2755000293
H  2.1237301826 1.1851501465 0.7931500673
H  2.7476801872 1.4739301205 -0.8324100375
H  4.6824202538 -0.0604900047 -0.3506600261
H  4.0602903366 -0.3276300132 1.2740501165
H  4.2824301720 2.1301100254 1.7627401352
H  4.9260902405 2.3864302635 0.1292800158
H  6.7859506607 2.2452402115 1.8101800680
