16

C  0.9090300798 -0.0025800001 -0.1217200086
C  2.3847804070 -0.0918100029 0.0787900090
O  2.7728300095 -0.1512100250 1.4665501118
C  3.2931902409 -0.8272000551 -0.8829600811
N  2.7993202209 -1.4965600967 -2.0920500755
C  3.3248102665 0.6812800765 -0.8166100383
O  4.4729104042 1.2513800859 -0.1542500108
H  0.6366700530 0.1714600027 -1.1664001942
H  0.4987300336 0.8235601187 0.4676900208
H  0.4269200265 -0.9277300239 0.2083500177
H  3.5444800854 0.4336900413 1.6031800508
H  4.1360101700 -1.3456400633 -0.4283500612
H  1.9980300665 -1.0143800974 -2.4955201149
H  2.4672701359 -2.4327600002 -1.8566801548
H  2.8964502811 1.2394001484 -1.6419800520
H  5.2451305389 1.2283101082 -0.7490000725
