14

O  1.0007200241 -0.0084100002 -0.0330700018
C  2.4200003147 0.0000000000 0.0000000000
C  2.9020202160 1.3611700535 0.0000000000
C  3.2993004322 2.4830701351 0.0000000000
C  3.8887302876 3.7866802216 0.0471800007
C  3.7950401306 4.6771306992 -1.1634901762
N  3.0219702721 4.9601101875 0.0390300006
H  0.7258700728 -0.9391201138 -0.0164100006
H  2.7874603271 -0.5458199978 -0.8744100928
H  2.7465503216 -0.5306200385 0.8996900320
H  4.7866401672 3.8718602657 0.6537800431
H  3.2270002365 4.3392705917 -2.0189702511
H  4.6235704422 5.3382706642 -1.3812900782
H  3.4442901611 5.7118206024 0.5858700275
