17

C  1.0109200478 -0.2296900153 -0.0004600000
C  2.4934401512 -0.0435400046 -0.0008700001
C  3.1390202045 1.1379899979 0.0000000000
C  2.4438202381 2.4724302292 0.0025700002
C  4.5450205803 1.1379899979 0.0000000000
C  5.7351803780 1.1379899979 0.0000000000
C  7.1791806221 1.1379899979 0.0000000000
H  0.7705700397 -1.2975701094 -0.0117400009
H  0.5580500364 0.2196900100 -0.8892400265
H  0.5618800521 0.2004300058 0.8999400139
H  3.0773603916 -0.9647800326 -0.0016600002
H  1.3529200554 2.3893101215 -0.0002800000
H  2.7303302288 3.0512304306 -0.8827400804
H  2.7261703014 3.0453901291 0.8929500580
H  7.5731906891 2.1588602066 -0.0116800005
H  7.5732002258 0.6174300313 -0.8782500625
H  7.5732002258 0.6376700401 0.8899400830
