16

O  3.0167901516 2.8379702568 -1.3656600714
C  2.3594503403 2.1948502064 -0.5541600585
C  2.9233403206 1.1040800810 0.3178700209
C  4.4042801857 0.8492800593 0.1024500057
C  5.3890004158 1.9064100981 0.6460900903
N  6.2668108940 0.8000500798 1.0951700211
C  5.0883607864 -0.0944600031 1.1120500565
H  1.2817600965 2.3928802013 -0.4210100472
H  2.3540501595 0.1930900067 0.1030500010
H  2.7197501659 1.3843901157 1.3575801849
H  4.6240806580 0.5636600256 -0.9368801117
H  5.0093903542 2.5166301727 1.4742001295
H  5.8341903687 2.5689001083 -0.1017300040
H  6.9582304955 0.5380500555 0.3907500207
H  5.2790203094 -1.1104000807 0.7538900971
H  4.6077203751 -0.1548400074 2.0956902504
