15

O  4.3020701408 1.1945900917 2.2429001331
C  3.2903201580 1.6734201908 1.7405201197
C  3.0903804302 1.8992701769 0.2621100247
C  4.3596401215 1.7015202045 -0.5599700809
C  5.3723006248 2.7771401405 -0.3091200292
C  6.0805306435 3.4671001434 -1.4456101656
O  4.9787206650 4.0797104836 -0.7607800364
H  2.4240500927 1.9363701344 2.3721802235
H  2.6958403587 2.9125301838 0.1301900148
H  2.3213803768 1.1921601295 -0.0676300079
H  4.0866103172 1.6869701147 -1.6222201586
H  4.8140001297 0.7284800410 -0.3390000165
H  5.8761105537 2.6946902275 0.6457100511
H  5.9116106033 3.1273703575 -2.4593803883
H  7.0681405067 3.8721301556 -1.2632001638
