18

C  0.9227100611 -0.0729400069 0.0849400088
C  2.4460802078 -0.0879400074 -0.0386900008
N  2.8406803608 -0.9823500514 -1.1276400089
C  2.9841902256 1.3318901062 -0.2723200321
C  4.5136303902 1.3897300959 -0.3116900325
C  4.9834504128 2.7778801918 -0.4497000277
C  5.3711404800 3.9096703529 -0.5654200315
H  0.6090900302 0.5638900399 0.9191200733
H  0.5332100987 -1.0796400309 0.2730500102
H  0.4485000372 0.3086200356 -0.8263700604
H  2.8664600849 -0.4790400565 0.8952800632
H  2.4358801842 -0.6571700573 -2.0059001446
H  2.4487500191 -1.9104701281 -0.9682000875
H  2.6212902069 1.9857201576 0.5325500369
H  2.5754201412 1.7423000336 -1.2059900761
H  4.8981204033 0.7973900437 -1.1494801044
H  4.9258303642 0.9568901062 0.6072800756
H  5.7166905403 4.9115405083 -0.6703900099
