11

N  1.0619001389 -0.0506400056 -0.0047200001
C  2.2232902050 -0.0321900025 -0.0121300006
C  3.6519300938 0.0583500080 -0.0214400012
N  4.3249001503 -1.0392900705 -0.0893400088
O  5.6894407272 -0.6482500434 -0.0592000037
C  5.7416405678 0.7558700442 -0.3565800190
C  4.4117202759 1.3108700514 0.0882700086
H  5.8926806450 0.8731101155 -1.4354200363
H  6.5821304321 1.2148100138 0.1715400070
H  4.0362401009 2.1093301773 -0.5534300208
H  4.4267501831 1.6332501173 1.1331300735
