16

C  1.5245101452 -0.4277900159 -0.5904600024
C  2.9027302265 -0.2292200178 0.0208100006
C  3.1824400425 1.2205001116 0.2840700150
C  4.1925301552 1.9029901028 -0.2774500251
C  4.3987102509 3.3331503868 0.0475500040
N  5.4645304680 3.8907704353 -0.5851700306
O  3.6908702850 3.9732904434 0.8109000325
H  1.3378701210 -1.4925901890 -0.7636900544
H  1.4388700724 0.0916600078 -1.5509600639
H  0.7380600572 -0.0510700047 0.0724299997
H  3.6582703590 -0.6599800587 -0.6465000510
H  2.9630403519 -0.7769700885 0.9680600762
H  2.5182602406 1.7255902290 0.9854500890
H  4.8741006851 1.4320001602 -0.9735900760
H  6.0713205338 3.3923301697 -1.2181200981
H  5.6534905434 4.8666000366 -0.3979700506
