17

C  1.2107400894 2.3838400841 1.9651800394
C  0.8324000835 1.1497400999 1.1660500765
C  2.0110201836 0.6084000468 0.3650900424
O  1.5607800484 -0.5461100936 -0.3611000180
C  2.4731802940 -1.1311100721 -1.1724201441
N  3.6803503036 -0.6999700665 -1.3264501095
N  4.4070806503 -1.4385700226 -2.1993401051
H  0.3473600447 2.7497403622 2.5288500786
H  1.5515401363 3.1876602173 1.3057399988
H  2.0112600327 2.1594603062 2.6765401363
H  0.0039200000 1.3855800629 0.4863800406
H  0.4559600055 0.3696100116 1.8396100998
H  2.8236501217 0.3187400103 1.0407700539
H  2.3665602207 1.3708901405 -0.3374100327
H  2.0346901417 -2.0107102394 -1.6727701426
H  5.3881106377 -1.1519399881 -2.1454000473
H  4.1311402321 -1.2345499992 -3.1639802456
