17

C  0.9331800938 2.3618302345 0.6329000592
C  2.2082703114 1.5608600378 0.6221400499
O  2.2287900448 0.3700000346 0.9172800779
N  3.3223803043 2.2753002644 0.2649000287
C  4.6155104637 1.6381502151 0.1139400154
C  5.7418103218 2.6790699959 0.0705500096
N  5.5183706284 3.6747202873 -0.9854701161
H  1.1192501783 3.4236001968 0.4528600276
H  0.4549800158 2.2564902306 1.6111800671
H  0.2665600181 1.9825000763 -0.1464500129
H  3.2262301445 3.1845102310 -0.1752900183
H  4.5899000168 1.0571100712 -0.8157700300
H  4.7725906372 0.9395900965 0.9430400729
H  6.7033505440 2.1802601814 -0.0880300030
H  5.7897706032 3.2039203644 1.0312100649
H  5.5438303947 3.2084701061 -1.8930002451
H  6.3021407127 4.3286004066 -0.9893300533
