11

C  0.9753200412 -0.0312000010 -0.0026000002
C  2.1748802662 0.0009200001 0.0004300000
C  3.5957403183 0.0358900018 0.0040800003
C  4.4051103592 1.1449401379 0.0035300003
N  5.6778507233 0.6423800588 0.0081900004
C  5.5824804306 -0.7219900489 0.0112500014
N  4.3297200203 -1.1186300516 0.0088600004
H  -0.0888300017 -0.0704100057 -0.0052600005
H  4.1970500946 2.2048602104 0.0004100000
H  6.5364904404 1.1756200790 0.0092200013
H  6.4517207146 -1.3662501574 0.0151700014
