16

C  0.9818700552 0.0094900010 -0.0064700008
C  2.5200002193 0.0000000000 0.0000000000
C  3.0161602497 -0.7242100239 1.2615501881
C  3.0185902119 -0.7170200348 -1.2723100185
O  4.4279603958 -0.9387000799 -1.2639701366
C  3.0020201206 1.3611700535 0.0000000000
N  3.3862302303 2.4461600780 0.0000000000
H  0.5895400047 0.5179300308 -0.8952500820
H  0.5817800164 0.5318200588 0.8705000877
H  0.5793600082 -1.0095400810 0.0003400000
H  2.6282100677 -0.2490300089 2.1704800129
H  4.1096601486 -0.7108900547 1.3353700638
H  2.6918001175 -1.7706801891 1.2682499886
H  2.7665202618 -0.1588100195 -2.1824400425
H  2.5495302677 -1.7035701275 -1.3570401669
H  4.8718204498 -0.0845600069 -1.4223701954
