13

N  1.0365700722 -0.0345000029 -0.1265800148
C  2.3658103943 0.0977100134 -0.0683700070
C  3.1968901157 1.1924701929 -0.0202500001
C  4.5071802139 0.6766200066 0.0352900028
N  5.6432404518 1.3879500628 0.0922600105
C  4.3959803581 -0.6919300556 0.0210700016
O  3.0849802494 -1.0525500774 -0.0420100056
H  0.4351100326 0.7384900451 0.1346199960
H  0.6479400396 -0.9515900612 0.0686600059
H  2.8873102665 2.2264301777 -0.0276800022
H  5.6542701721 2.3979003429 -0.0105800014
H  6.5587105751 0.9546200633 0.0205300022
H  5.1024003029 -1.5080600977 0.0484200045
