17

C  1.6723601818 1.7522001266 -1.9344501495
O  3.0574502945 1.7833602428 -1.6137501001
C  3.2707901001 1.7767101526 -0.2000500113
C  4.7645707130 1.8238700628 0.0698100030
C  5.2882103920 3.1872804165 -0.2841800153
N  5.7613606453 3.9685604572 0.6350000501
N  6.1875004768 5.1560606956 0.1506600082
H  1.5706402063 1.7905001640 -3.0223202705
H  1.1583700180 2.6175401211 -1.5049201250
H  1.2183400393 0.8248600364 -1.5725201368
H  2.8541700840 0.8522900343 0.2157700062
H  2.7622001171 2.6350603104 0.2545900345
H  5.2967305183 1.0938000679 -0.5483700037
H  4.9672002792 1.6193801165 1.1259201765
H  5.2387504578 3.4820003510 -1.3494400978
H  7.0377407074 5.0425901413 -0.4070300460
H  6.4583902359 5.7620005608 0.9290400743
