14

C  0.8028100729 0.5051900148 -0.1140700132
C  2.0926902294 0.1995100081 0.0864500031
C  3.2805204391 1.1244001389 0.0154100014
C  3.9584202766 1.3539701700 1.3523401022
O  3.4383203983 2.5983102322 1.8423202038
N  3.0292503834 3.3646502495 0.7241700292
C  2.9456300735 2.5482699871 -0.2706000209
H  0.0357700028 -0.2601900101 -0.0318700038
H  0.4640000165 1.5109500885 -0.3427700400
H  2.3300502300 -0.8375300169 0.3239300251
H  3.9847002029 0.7444000840 -0.7306200862
H  5.0424704552 1.4664502144 1.2360000610
H  3.7672204971 0.5662300587 2.0875802040
H  2.6414601803 2.8600502014 -1.2799400091
