12

N  1.0000001192 0.0000000000 0.0000000000
C  2.1510102749 0.0000000000 0.0000000000
C  3.5950102806 0.0000000000 0.0000000000
C  4.1563301086 -1.1993501186 -0.7522700429
C  4.5111603737 -0.5461500883 -2.0484101772
N  4.5003304482 0.7454800606 -2.0422501564
N  4.1751203537 1.1072601080 -0.7758800387
H  3.9710302353 0.0221900009 1.0279800892
H  3.4481000900 -2.0153801441 -0.9199500680
H  5.0775003433 -1.5879200697 -0.3065700233
H  4.7843604088 -1.1486901045 -2.9262402058
H  3.6178603172 1.9641201496 -0.7416500449
