15

C  1.0000001192 0.0000000000 0.0000000000
C  2.4440002441 0.0000000000 0.0000000000
C  3.6341602802 0.0000000000 0.0000000000
C  5.0745301247 0.0729400069 -0.0695800036
C  5.7528204918 1.1020901203 0.8433000445
C  6.6232004166 -0.0757200122 1.2712901831
O  5.6921000481 -1.0151801109 0.6738500595
H  0.6059900522 1.0208700895 0.0117500005
H  0.6059800386 -0.5205700397 0.8782500625
H  0.6059200764 -0.5002700686 -0.8899400830
H  5.4551105499 0.0828500018 -1.0988301039
H  5.1312503815 1.5130801201 1.6448301077
H  6.2782106400 1.9120401144 0.3297400177
H  7.6056203842 -0.1351400167 0.7935900688
H  6.7198505402 -0.2215100080 2.3508203030
