15

C  1.0336800814 -0.0827300027 0.5685100555
N  2.3067200184 0.1666200012 -0.0708300099
C  2.9871101379 1.3596000671 0.0383300036
N  2.4104001522 2.5047802925 0.2029500157
C  4.5126004219 1.3368901014 -0.0715000033
C  5.1147203445 0.4838300645 0.9671200514
C  5.6067404747 -0.2099900097 1.8163601160
H  0.7219700217 -1.1138900518 0.3763700426
H  0.2550900280 0.5782000422 0.1770100147
H  1.1135500669 0.0543200076 1.6512701511
H  2.9121503830 -0.6514500380 -0.0596000031
H  1.3982400894 2.3788402081 0.2155100107
H  4.8990101814 2.3588900566 0.0078700008
H  4.7717204094 0.9594801068 -1.0670601130
H  6.0446701050 -0.8153200746 2.5756602287
