16

C  1.0141000748 0.0002300000 0.1107400060
C  2.5110001564 0.2885000110 0.0893800110
C  2.9315602779 1.7459601164 0.0594400018
C  2.0830101967 2.7894802094 0.0774400011
C  4.4212002754 1.9701402187 -0.0167500004
O  5.0319900513 1.4797700644 1.1673700809
H  0.8418200612 -1.0811500549 0.1290400028
H  0.5180800557 0.4012900293 -0.7795400620
H  0.5380100608 0.4271800220 0.9999001026
H  2.9376301765 -0.2113300115 -0.7893700600
H  2.9560801983 -0.1860800087 0.9725400805
H  1.0062201023 2.6649403572 0.1225700155
H  2.4433500767 3.8140501976 0.0443200022
H  4.6776404381 3.0300502777 -0.1163400039
H  4.8482403755 1.4432601929 -0.8761500716
H  4.5219001770 1.8422701359 1.9114501476
