15

O  1.8062001467 -0.7584500909 2.9726800919
C  2.4345002174 -0.1302500069 2.1300301552
N  3.7947802544 -0.2078900188 1.9921901226
N  4.4442300797 0.5308099985 1.0052300692
C  5.6969504356 1.1504701376 1.5211000443
C  6.3579001427 0.7626500726 0.1851100177
C  5.2869606018 -0.3425700366 0.1406400204
H  1.9538301229 0.5513800383 1.4085301161
H  4.2956604958 -0.8205500841 2.6273002625
H  6.1454806328 0.6580900550 2.3938403130
H  5.6302704811 2.2249500751 1.7143301964
H  6.2558207512 1.5186800957 -0.6021600366
H  7.3967008591 0.4288200438 0.2371600121
H  4.8677706718 -0.5475200415 -0.8485600948
H  5.6094403267 -1.2885401249 0.5950500369
