15

O  1.5394401550 -0.3640600145 -1.2307200432
C  2.1177201271 0.1000400037 -0.2529200315
C  2.7927801609 1.4451701641 -0.2577400208
C  4.2715902328 1.2900600433 0.0885700062
C  5.0144104958 2.6227502823 0.0911100060
C  4.6709403992 3.5018203259 1.2715700865
O  3.9148902893 3.1763000488 2.1801500320
H  2.1458401680 -0.4496600330 0.7034700513
H  2.2706701756 2.0762102604 0.4677500427
H  2.6739501953 1.8964301348 -1.2488201857
H  4.7405099869 0.6278600693 -0.6501600742
H  4.3787202835 0.7919700146 1.0603100061
H  4.8085803986 3.1858000755 -0.8248800635
H  6.0931906700 2.4393401146 0.1389800012
H  5.1682906151 4.4875202179 1.2805500031
