13

C  1.9947001934 -0.5733100772 -1.2338501215
C  2.1198601723 0.3375100195 -0.2585900128
C  3.2561802864 1.2415500879 -0.0651100054
N  3.5802204609 2.1741201878 -1.1395001411
C  3.0056502819 2.7260003090 0.0932600051
C  3.8287703991 3.4590702057 1.0162000656
N  4.4672904015 4.0496201515 1.7844300270
H  1.1214300394 -1.2155201435 -1.2912400961
H  2.7658801079 -0.7020000815 -1.9877001047
H  1.3208800554 0.4011100233 0.4792500436
H  4.1110005379 0.8058500886 0.4444700480
H  2.8758103848 2.1301603317 -1.8769301176
H  1.9878301620 3.0889902115 0.0015800002
