17

C  2.4505002499 -0.6123200655 1.4078001976
C  2.5614702702 -0.0461500064 -0.0009300000
C  3.0147004128 1.3969901800 0.0000000000
C  2.1772801876 2.4524900913 -0.0338900052
C  0.6820100546 2.4311802387 -0.0236400012
C  4.3971605301 1.6532201767 0.0000000000
C  5.5673904419 1.8701100349 0.0000000000
H  2.1266703606 -1.6573801041 1.3691400290
H  1.7198002338 -0.0546700060 2.0032103062
H  3.4133000374 -0.5776200294 1.9285901785
H  1.6012501717 -0.1579000205 -0.5163600445
H  3.2700002193 -0.6537200809 -0.5788100958
H  2.6049902439 3.4557001591 -0.0559100062
H  0.2618200183 1.4373100996 0.1434400082
H  0.2990900278 2.8130602837 -0.9745000601
H  0.3139200509 3.0801203251 0.7771900296
H  6.6142601967 2.0652902126 0.0001000000
