13

C  0.9852500558 0.0159600005 0.0145400008
C  2.3144702911 0.1528200209 0.0128800012
C  3.0009202957 1.4357601404 0.0156300012
C  4.3283905983 1.2342001200 0.0476100035
C  4.7017002106 -0.1905000210 0.0565900020
O  4.2937803268 -1.1122200489 1.0731600523
C  3.3423402309 -0.9212500453 0.0186800007
H  0.5286800265 -0.9683100581 0.0241500009
H  0.3216100335 0.8756200671 0.0178100020
H  2.5075101852 2.3953402042 0.0145400008
H  5.0663805008 2.0237302780 0.0747700036
H  5.4646906853 -0.5004800558 -0.6462200284
H  3.2164502144 -1.7136801481 -0.7094000578
