15

C  2.4907302856 -0.5589900017 -0.1284400076
O  2.0482802391 0.7902700901 -0.0317500047
C  2.9929101467 1.7999001741 -0.0022700001
C  2.3444700241 3.1534202099 0.1125200093
C  4.3244099617 1.6074301004 -0.0542000011
C  5.3241600990 2.6969401836 -0.0595500022
O  6.5246005058 2.4501600266 -0.0865000114
H  1.6057201624 -1.2017400265 -0.1534100175
H  3.0861101151 -0.8379800916 0.7468701005
H  3.0517001152 -0.7223200798 -1.0543200970
H  1.3432600498 3.0655603409 0.5494300723
H  2.2409200668 3.6089901924 -0.8771300316
H  2.9066102505 3.8286902905 0.7643800378
H  4.7731204033 0.6236799955 -0.1191100031
H  4.9455003738 3.7292802334 -0.0508800037
