15

C  0.8030800819 0.4269400239 -0.0406900048
C  2.1099600792 0.1828300059 0.1350200176
C  3.2623603344 1.1517500877 0.0081300009
C  3.9958603382 1.3854501247 1.3435000181
O  3.8295602798 2.7679901123 1.7368701696
C  3.2336702347 3.3552100658 0.6455300450
C  2.8933501244 2.5456402302 -0.3493100107
H  0.0719600022 -0.3662900329 0.0791400075
H  0.4234100282 1.4111400843 -0.2955100238
H  2.3978800774 -0.8359100819 0.3937500119
H  3.9626703262 0.7457600832 -0.7316400409
H  5.0712404251 1.2006500959 1.2313201427
H  3.6287503242 0.7494601011 2.1569201946
H  3.0907301903 4.4203205109 0.7239000201
H  2.4175202847 2.8484702110 -1.2695001364
