18

C  0.8837900758 2.3261702061 -0.5444400311
N  1.8078701496 1.3321701288 -0.0108400015
C  3.1904704571 1.8083500862 -0.1055700034
C  4.1708102226 0.7488800287 0.4104400277
C  4.1231203079 -0.5706300735 -0.3577400446
C  4.5996103287 -0.4570100307 -1.7851600647
O  5.2107105255 0.5031800270 -2.2434101105
H  -0.1397500038 1.9451601505 -0.4761200249
H  1.0885901451 2.5312902927 -1.6002501249
H  0.9335100651 3.2633903027 0.0193600003
H  1.5782001019 1.1594500542 0.9679700732
H  3.3119401932 2.7175102234 0.4960700572
H  3.4314403534 2.0675401688 -1.1421500444
H  3.9588901997 0.5466200113 1.4679501057
H  5.1858105659 1.1630901098 0.3699700236
H  3.1092903614 -0.9832100868 -0.3724400401
H  4.7683401108 -1.3064100742 0.1352900118
H  4.4166603088 -1.3495501280 -2.4080600739
