10

O  1.1604800224 -0.0747700036 -0.4042500257
C  2.3344702721 -0.0409200042 -0.0934200063
N  3.1587803364 -1.0798699856 0.1523600221
C  4.3957901001 -0.6460500956 0.4701900184
O  5.3734302521 -1.3115900755 0.7477200627
C  4.3614106178 0.8190900683 0.4229600132
C  3.1224801540 1.1828200817 0.0842100084
H  2.8875701427 -2.0471100807 0.1055700034
H  5.2127704620 1.4414300919 0.6331400275
H  2.7226700783 2.1723802090 -0.0477000028
