15

O  3.0669600964 -1.0022001266 -0.5813000202
C  2.3884603977 0.0514300019 0.0976800099
C  3.2041401863 1.3376501799 0.0058300006
C  3.3522403240 1.8541800976 -1.4176601171
C  3.1940302849 3.3153302670 -1.1622900963
N  2.7680301666 3.6379003525 0.0150600011
N  2.5467102528 2.4693400860 0.6647000909
H  2.5122301579 -1.7969200611 -0.4920400381
H  2.2567901611 -0.2452600300 1.1438001394
H  1.3982101679 0.1719600111 -0.3558700383
H  4.2037305832 1.1834701300 0.4319700301
H  2.5654702187 1.5288100243 -2.1044001579
H  4.3368701935 1.6500201225 -1.8451100588
H  3.4180703163 4.0500001907 -1.9483001232
H  2.7667500973 2.5329101086 1.6601301432
