14

C  1.5524801016 -0.5051100254 -0.8052500486
O  2.8636701107 -0.2789700329 -0.3009999990
N  3.1509802341 1.0896700621 -0.4124600589
C  4.3543300629 1.2953801155 0.0172400009
C  4.9500999451 2.6746201515 0.0339200050
C  6.1772804260 2.7209401131 -0.7719200253
C  7.1807703972 2.7634201050 -1.4306300879
H  1.3331500292 -1.5734201670 -0.7311200500
H  1.4930000305 -0.2047800124 -1.8559501171
H  0.8182800412 0.0483100042 -0.2118000239
H  4.9814500809 0.4714500308 0.4034200311
H  5.1774306297 2.9239101410 1.0756900311
H  4.2171001434 3.3979101181 -0.3377400339
H  8.0685710907 2.8021900654 -2.0190401077
