11

O  2.6368203163 -1.0726101398 0.0700200126
C  2.1336600780 0.0477500036 0.0096300012
C  2.8888800144 1.2718800306 -0.0059600007
N  2.3553800583 2.4767203331 -0.0706100091
C  3.4160902500 3.3476600647 -0.0614900067
C  4.6073102951 2.6654701233 0.0094600013
N  4.2578902245 1.3447701931 0.0442500040
H  1.0383000374 0.1710200161 -0.0371800028
H  3.2652604580 4.4189906120 -0.1064800099
H  5.6367707253 2.9934604168 0.0372300036
H  4.8753700256 0.5445400476 0.0973600075
