17

C  4.8497800827 1.6666600704 -1.8305501938
C  4.7895803452 1.6042500734 -0.3170900047
O  5.8784003258 2.3760700226 0.2051300108
N  5.7824201584 2.3222501278 1.6062301397
C  6.8187804222 1.4938800335 2.1985101700
C  5.4583201408 3.5354104042 2.1639502048
N  4.9698405266 4.5648803711 1.5611201525
H  4.0459799767 1.0749701262 -2.2783801556
H  5.8117604256 1.2901300192 -2.1950902939
H  4.7611799240 2.7021203041 -2.1772999763
H  4.8796601295 0.5639100075 0.0144200008
H  3.8359601498 2.0151500702 0.0330200046
H  6.8450903893 0.5109600425 1.7174201012
H  6.6255307198 1.3382000923 3.2649700642
H  7.8009805679 1.9638401270 2.0844700336
H  5.6412706375 3.5788903236 3.2507202625
H  4.9055905342 4.3060703278 0.5681200624
