13

C  1.0570501089 -0.1027000025 -0.0063900002
C  2.5200603008 0.0905000046 0.0007600000
C  3.3331701756 1.2059000731 0.0027800002
C  4.6669201851 0.7280800343 0.0103200004
C  4.5707306862 -0.6388500333 0.0122500015
O  5.4409403801 -1.6267801523 0.0183500014
O  3.2796304226 -1.0434600115 0.0064700008
H  0.5338000059 0.8584800363 0.0022100003
H  0.7413501143 -0.6705600023 0.8742200732
H  0.7479200363 -0.6513300538 -0.9013300538
H  3.0044102669 2.2357201576 -0.0007400001
H  5.5820603371 1.3012200594 0.0138700008
H  4.8735208511 -2.4170603752 0.0169800017
