19

O  2.4792103767 1.6767101288 -2.1115701199
C  2.3252701759 2.2016501427 -0.7992500663
C  2.9629802704 1.2504200935 0.2052000165
C  4.4833703041 1.3009899855 0.1092600077
C  5.1986403465 2.5306804180 0.7356500626
C  6.3124308586 1.5616900921 1.1824101210
C  5.2517604828 0.4428900480 1.1505401134
H  2.0454802513 2.2984902859 -2.7209002972
H  1.2532001734 2.2923500538 -0.5976400375
H  2.7791402340 3.1972603798 -0.7617100477
H  2.6244902611 0.2268100083 0.0082100006
H  2.6395702362 1.5210101604 1.2166100740
H  4.8343501091 1.0922900438 -0.9122200608
H  4.6607899666 2.9933900833 1.5710401535
H  5.5043802261 3.3107802868 0.0343700014
H  7.1102504730 1.4350601435 0.4415300488
H  6.7597804070 1.7662401199 2.1581201553
H  5.6016607285 -0.5302900076 0.7959700227
H  4.7290902138 0.3069300056 2.1050601006
