17

C  0.8990300894 0.2059000283 -0.1213800088
C  2.0936501026 0.1352300197 -0.2192500234
C  3.5561404228 0.0437400043 -0.3390800357
C  4.2475805283 1.1922200918 0.3964000344
C  5.7406706810 1.1131601334 0.2595100105
C  6.6266503334 1.6970702410 1.3285601139
C  6.5430707932 0.2055500150 1.1546001434
H  -0.1613400131 0.2677700222 -0.0342300013
H  3.8406102657 0.0556300059 -1.3991701603
H  3.8987903595 -0.9161700606 0.0652600080
H  3.9558303356 1.1833901405 1.4546201229
H  3.9099802971 2.1535701752 -0.0111600002
H  6.0638504028 1.2267900705 -0.7701401114
H  6.1670303345 2.1305501461 2.2096600533
H  7.5385603905 2.1940200329 1.0171400309
H  7.3981304169 -0.3041500151 0.7246500254
H  6.0265002251 -0.3650000095 1.9183402061
