19

C  2.9328901768 -1.0680100918 0.6894100904
C  2.6781101227 -0.0907200053 -0.4552700222
C  3.0760903358 1.3728702068 -0.1608100086
C  2.7134599686 2.2539601326 -1.3602900505
O  2.3097000122 1.8472701311 0.9444500804
C  4.5587005615 1.5061100721 0.1245300099
C  5.1326704025 2.0996501446 1.1814100742
H  2.6339001656 -2.0769302845 0.3886600137
H  2.3525300026 -0.8030900955 1.5775101185
H  3.9910402298 -1.1026000977 0.9620100856
H  1.6047301292 -0.1312900037 -0.6845400929
H  3.2083601952 -0.4509000182 -1.3470702171
H  3.2455501556 1.9493201971 -2.2679200172
H  2.9470601082 3.3062202930 -1.1605900526
H  1.6366602182 2.2124702930 -1.5617501736
H  2.6202502251 1.3760401011 1.7347701788
H  5.2174501419 1.0799701214 -0.6321800351
H  4.5516104698 2.5774903297 1.9635502100
H  6.2134203911 2.1422202587 1.2718000412
