12

C  1.0000001192 0.0000000000 0.0000000000
C  2.1901600361 0.0000000000 0.0000000000
C  3.5961604118 0.0000000000 0.0000000000
C  4.2944402695 1.1220400333 -0.2291300148
C  5.7950606346 1.1937501431 -0.2343300283
C  6.2922406197 1.6452801228 -1.5431500673
N  6.6971702576 2.0054600239 -2.5689601898
H  -0.0652800053 0.0009300000 -0.0025600002
H  4.0996103287 -0.9436200261 0.1913100183
H  3.7640101910 2.0555403233 -0.4160000384
H  6.2364802361 0.2209000140 0.0108100018
H  6.1157302856 1.8948601484 0.5444400311
