16

C  2.1874101162 -0.2482300103 1.4679701328
C  2.4181501865 0.1580300182 0.0223900024
N  3.0065703392 1.4953300953 -0.0544300042
C  2.0859200954 2.6195700169 0.0112200016
C  4.3642301559 1.6601001024 0.0274400022
N  5.0385303497 2.7539701462 0.0452900045
H  1.7493700981 -1.2505700588 1.5157501698
H  1.5049802065 0.4455900192 1.9711101055
H  3.1272902489 -0.2601300180 2.0309200287
H  1.4702901840 0.1274900138 -0.5276400447
H  3.0755600929 -0.5721800923 -0.4647400379
H  1.0404900312 2.3008201122 -0.0608300045
H  2.2739801407 3.3134403229 -0.8142900467
H  2.2066402435 3.1560802460 0.9577701092
H  4.9168105125 0.7061000466 0.0823100060
H  4.4074802399 3.5519201756 -0.0209900029
