15

C  2.5157301426 -0.8215800524 -0.9203800559
O  2.3823602200 0.0190800019 0.2184200138
C  2.8940103054 1.3385500908 0.0000000000
C  2.3881301880 2.1767501831 1.1401300430
C  1.6496502161 3.2893102169 1.0155800581
C  4.3380103111 1.3385500908 0.0000000000
C  5.5281705856 1.3385500908 0.0000000000
H  2.0051901340 -1.7652200460 -0.7093700767
H  3.5687103271 -1.0420701504 -1.1196100712
H  2.0519001484 -0.3661300242 -1.8005701303
H  2.5013701916 1.7257101536 -0.9485100508
H  2.6360800266 1.8215000629 2.1384601593
H  1.3617601395 3.6800403595 0.0449600033
H  1.3128901720 3.8289103508 1.8953201771
H  6.5936107635 1.3374201059 0.0078000003
