13

C  0.8650300503 -0.0196900014 -0.0070900004
N  2.3042402267 0.0106300004 0.0520200059
S  3.1371502876 1.4626301527 -0.0066000004
C  4.6636905670 0.6258300543 -0.0233800020
C  4.5801305771 -0.7107600570 -0.0114800008
C  3.1466701031 -1.0766800642 0.0181100015
N  2.8218600750 -2.3266501427 0.0085200006
H  0.4191000164 0.9807100296 0.0288000014
H  0.4645800292 -0.5866100192 0.8401000500
H  0.5297600627 -0.5015800595 -0.9314900637
H  5.5982403755 1.1698400974 -0.0445500016
H  5.3764204979 -1.4319101572 -0.0219700020
H  1.8051601648 -2.4159801006 0.0335699990
