18

C  1.0975000858 0.0488800034 0.3593800366
N  2.5175201893 0.0020500000 0.0004200000
C  2.8410501480 -1.2817502022 -0.6618300676
C  2.6172103882 -1.0210100412 -2.1193103790
C  3.6668400764 -0.3832300305 -2.9911203384
C  2.6177701950 0.4547300339 -2.3093302250
C  2.8420701027 1.0759401321 -0.9654900432
H  0.8613200784 0.9978200793 0.8540700674
H  0.8605200648 -0.7436900735 1.0781500340
H  0.4326800108 -0.0620200038 -0.5050900578
H  2.2370200157 -2.1169300079 -0.2902100384
H  3.8932101727 -1.5288001299 -0.4775400162
H  1.8234201670 -1.6046800613 -2.5617201328
H  4.6862502098 -0.3370100260 -2.6258401871
H  3.5857102871 -0.5216200352 -4.0629601479
H  1.8244401217 0.9078400731 -2.8852000237
H  3.8943603039 1.3608700037 -0.8496900797
H  2.2384202480 1.9783701897 -0.8178700805
