18

C  2.7679402828 -1.3025101423 -0.3271700144
C  2.2321600914 -0.0007900001 0.2514100075
C  3.2646403313 1.1089001894 0.2323400080
N  4.4321904182 0.9431800246 1.1344400644
C  3.4948403835 1.8451602459 -1.0647101402
C  2.7639000416 2.5327100754 0.0496600047
O  3.5166702271 3.5312902927 0.7609100342
H  1.9849201441 -2.0668401718 -0.3273800313
H  3.6094501019 -1.6817802191 0.2594300210
H  3.1105301380 -1.1631300449 -1.3569101095
H  1.8982001543 -0.1682500243 1.2832000256
H  1.3417900801 0.2946000397 -0.3198800087
H  4.1147603989 0.6814900637 2.0690002441
H  5.0143804550 0.1694300175 0.8123500943
H  2.9191503525 1.5598500967 -1.9379900694
H  4.4957804680 2.1877901554 -1.3008201122
H  1.7007201910 2.7038900852 -0.0783700123
H  4.2933702469 3.0923202038 1.1651401520
