15

C  0.7990900874 0.2020500153 0.1299900115
N  2.2397902012 0.1773700118 -0.1133700088
C  2.8121001720 1.3060201406 0.0681600049
N  4.1533503532 1.3744701147 -0.1407900155
C  4.8961405754 2.5201802254 0.0193600003
C  6.3631005287 2.3446600437 -0.2702200413
O  4.4326305389 3.6010901928 0.3712100089
H  0.3025300205 -0.4481900334 -0.5964400172
H  0.3577900231 1.2004300356 0.0309300032
H  0.5835400224 -0.1817000061 1.1319401264
H  2.3221602440 2.2432501316 0.3844000399
H  4.5835804939 0.5075900555 -0.4281800389
H  6.5924901962 1.3343300819 -0.6195800900
H  6.9319701195 2.5356702805 0.6436500549
H  6.6605505943 3.0549104214 -1.0464301109
