9

C  1.0011900663 -0.0525800027 0.0034300003
C  2.5200002193 0.0000000000 0.0000000000
C  3.0020201206 1.3611700535 0.0000000000
N  3.3862302303 2.4461600780 0.0000000000
H  0.6564600468 -1.0915001631 0.0011000001
H  0.5853800178 0.4456600547 -0.8793700337
H  0.5897400379 0.4402100444 0.8913201094
H  2.8953902721 -0.5320200324 -0.8811801076
H  2.8995404243 -0.5337800384 0.8783100843
