14

C  0.9351100326 -0.1770800054 -0.0055700000
C  2.3909401894 0.0412500016 -0.0033300002
C  3.2144501209 1.1484000683 -0.0071800007
C  2.8566503525 2.5814602375 -0.0154900011
N  4.5297603607 0.7418500781 -0.0025600002
C  4.4500007629 -0.5697799921 0.0038100001
O  3.1852202415 -1.0716501474 0.0037100003
H  0.3924200237 0.7729600668 0.0037600002
H  0.6322301030 -0.7498601079 0.8762200475
H  0.6327500939 -0.7324200869 -0.8986100554
H  3.7524602413 3.2101302147 -0.0040000002
H  2.2545101643 2.8319902420 0.8634800315
H  2.2800800800 2.8276002407 -0.9126501083
H  5.2563104630 -1.2884100676 0.0089900009
