13

C  0.8863900900 0.0247500017 -0.0557000041
C  2.0863201618 0.0192800015 -0.0483700037
C  3.6184701920 0.0087200003 -0.0325200036
C  4.8187203407 -0.0056300005 -0.0098200012
C  6.2513103485 -0.0293100029 0.0335900001
C  6.9968905449 -0.7494800687 -1.0593800545
C  7.0245404243 0.7500700355 -0.9972000718
H  -0.1785800010 0.0284600016 -0.0602400042
H  6.6834702492 -0.0781899989 1.0293500423
H  6.4326105118 -1.2128701210 -1.8609201908
H  7.8968005180 -1.2879800797 -0.7853500247
H  7.9442505836 1.2293500900 -0.6818600893
H  6.4793505669 1.2990901470 -1.7565600872
