19

C  0.9515801072 -0.1108800024 -0.1919300109
C  2.4568603039 0.0586700067 -0.0207700003
C  3.2432003021 -0.7679500580 -1.0319200754
C  2.8511900902 1.5337702036 -0.0906400084
C  2.6617300510 2.2818901539 -1.3951802254
N  3.3462302685 2.0670602322 0.9912400842
N  3.7089104652 3.3650703430 0.9053300619
H  0.4059900045 0.5212200284 0.5170300603
H  0.6579900384 -1.1508800983 -0.0144400010
H  0.6210200787 0.1620400250 -1.1992800236
H  2.7206802368 -0.3034200370 0.9818600416
H  2.9741501808 -0.5163700581 -2.0629801750
H  3.0521302223 -1.8366601467 -0.8884000182
H  4.3194799423 -0.5976200700 -0.9204800725
H  2.1130700111 1.6805901527 -2.1228003502
H  3.6408302784 2.5268602371 -1.8170100451
H  2.0964901447 3.2020301819 -1.2215801477
H  3.9006402493 3.7211003304 1.8453800678
H  4.5989303589 3.4568302631 0.4095600247
