14

C  0.5579900146 -0.3797300160 0.1531200111
C  1.9997302294 0.0619400032 0.0927000120
N  2.9477002621 -0.8153800964 0.1478900164
N  2.2677402496 1.3923400640 -0.0474400036
C  3.6135601997 1.8707001209 -0.3341300189
C  3.6634602547 3.3432102203 -0.4063200355
N  3.6745800972 4.5034403801 -0.4757000208
H  -0.1012600064 0.4691400528 0.3532100320
H  0.4303800166 -1.1230000257 0.9451801181
H  0.2833200395 -0.8289700747 -0.8054500818
H  2.5564103127 -1.7590601444 0.2482000142
H  1.5095001459 2.0103902817 -0.3161000311
H  3.9526703358 1.4541901350 -1.2895200253
H  4.3040404320 1.5281001329 0.4450300336
