20

C  0.5479600430 0.2796500325 0.3701400459
C  1.8048901558 0.0752000064 -0.4633500576
C  2.9183402061 1.0368300676 -0.0894900113
C  3.6013503075 0.8223600388 1.2518301010
C  4.2617902756 -0.5447100401 1.3722900152
C  3.7484903336 1.6290200949 -1.2145800591
N  2.7439901829 2.4308700562 -0.5357800722
H  -0.2220000178 -0.4406200349 0.0737700090
H  0.1408300102 1.2865501642 0.2279600054
H  0.7447800040 0.1418400109 1.4363901615
H  1.5390100479 0.1927500069 -1.5209801197
H  2.1499102116 -0.9582200646 -0.3555200100
H  2.8779902458 0.9529200792 2.0640201569
H  4.3759803772 1.5849801302 1.4066700935
H  3.5133304596 -1.3419001102 1.4296101332
H  4.8653903008 -0.5928700566 2.2829003334
H  4.9107604027 -0.7483800650 0.5160700679
H  3.5194203854 1.3544301987 -2.2375502586
H  4.7828602791 1.8942600489 -1.0361900330
H  3.1719303131 3.0855102539 0.1220900044
