17

C  1.7627100945 -0.7420500517 1.8007701635
C  2.4953501225 -0.6748900414 0.4679400623
C  3.4925503731 0.4828800261 0.3994800150
N  4.5646605492 0.3238800168 1.3777101040
O  5.3868303299 -0.7812801003 1.1214001179
C  5.2541799545 1.4047701359 1.8665601015
N  6.4649004936 1.4146001339 2.3038301468
H  1.0124601126 -1.5384901762 1.7782101631
H  1.2502700090 0.2009700239 2.0150301456
H  2.4520902634 -0.9545600414 2.6235802174
H  1.7567501068 -0.5485900640 -0.3327000141
H  3.0021002293 -1.6297401190 0.2857800126
H  2.9582402706 1.4248701334 0.5730100274
H  3.9246203899 0.5385600924 -0.6068000793
H  5.3072800636 -1.2990200520 1.9456601143
H  4.6593003273 2.3342602253 1.8830201626
H  6.8320202827 0.4665600359 2.1619701385
