15

C  0.9962900877 -0.0078600002 0.0037600002
C  2.5190501213 -0.0061200005 -0.0920400098
O  2.9178302288 -1.1611200571 -0.8826000690
C  3.3044402599 -0.6209800839 -2.0911302567
C  3.4023404121 0.7024400830 -2.1368000507
C  3.0703501701 1.2467700243 -0.8021301031
O  4.2740006447 1.7073000669 -0.2007600218
H  0.6390000582 0.8338600397 0.6041400433
H  0.6469500661 -0.9388800859 0.4625400305
H  0.5331200361 0.0463500060 -0.9872800708
H  2.9516100883 -0.1227200106 0.9086800218
H  3.5186402798 -1.3406901360 -2.8639802933
H  3.7167701721 1.2880300283 -2.9861004353
H  2.3534600735 2.0715401173 -0.8321400285
H  4.9146304131 0.9751500487 -0.2514400184
