17

C  1.8210902214 -0.1776800156 -1.0064800978
O  3.1041102409 0.3648500443 -0.7204200625
C  3.1697201729 1.6454901695 -0.2090800107
C  2.1231901646 2.4679303169 -0.0188600011
C  4.5832500458 2.0861701965 0.1123000085
C  5.1677303314 1.3127001524 1.2632300854
C  5.5989904404 1.8568102121 2.4087901115
H  1.9614702463 -1.2031701803 -1.3610600233
H  1.3262100220 0.3890600204 -1.8014601469
H  1.2003800869 -0.2158000171 -0.1053600088
H  1.1016200781 2.1919901371 -0.2480400205
H  2.2683000565 3.4659202099 0.3839300275
H  4.6140704155 3.1628301144 0.3226900399
H  5.2124505043 1.9310401678 -0.7727900743
H  5.2439603806 0.2350900173 1.1282800436
H  5.5463504791 2.9257702827 2.5891602039
H  6.0131201744 1.2333500385 3.1952002048
