15

C  0.9270600677 -0.0492300056 0.0307000037
C  2.4441702366 0.0338800028 0.0657200068
C  2.9814200401 1.4666700363 0.0215100013
C  2.5992002487 2.2988002300 1.2380000353
O  4.4057502747 1.4144701958 -0.0605400056
H  0.6093200445 -1.0954501629 -0.0246700011
H  0.5252800584 0.4731200337 -0.8431200385
H  0.4808400571 0.3848300576 0.9301600456
H  2.8528103828 -0.5237100720 -0.7867400646
H  2.8203301430 -0.4802900255 0.9592500925
H  2.6275701523 1.9676201344 -0.8858700395
H  2.9310903549 1.8159902096 2.1639900208
H  1.5193901062 2.4622902870 1.2957301140
H  3.0924303532 3.2765102386 1.2002900839
H  4.7350702286 0.9755200744 0.7424300909
