10

C  0.9545900822 -0.1046500057 0.2148300111
C  2.2167000771 0.1178900078 -0.1765500158
S  2.9279100895 1.6821701527 -0.0324400030
O  2.1357800961 2.6112701893 0.7444400787
O  4.3719902039 1.6111900806 0.0172500014
C  2.7276802063 2.4184901714 -1.6718801260
N  2.5798802376 2.8531401157 -2.7436401844
H  0.5150800347 -1.0943500996 0.1283900142
H  0.3273800313 0.6782400608 0.6361500621
H  2.8360400200 -0.6697700620 -0.5840600133
