15

C  3.3947203159 -0.6760300994 0.1856400222
C  2.5769503117 0.3680200577 0.3758300245
C  2.6463100910 1.6906001568 -0.2467600256
C  1.6297901869 2.5331902504 0.0060200002
N  3.7425403595 2.0028302670 -1.0320100784
C  4.0430002213 3.1263403893 -1.7345801592
N  5.1107702255 3.3227603436 -2.4281101227
H  3.2130401134 -1.6048501730 0.7208700776
H  4.2402000427 -0.6749100089 -0.4896300435
H  1.7513700724 0.2150200158 1.0729100704
H  0.7871100903 2.2534999847 0.6315500140
H  1.5912702084 3.5374102592 -0.3994500339
H  4.4442005157 1.2790801525 -1.0609600544
H  3.2848403454 3.9232702255 -1.6902201176
H  5.7198700905 2.5046203136 -2.3832001686
