13

C  1.0000001192 0.0000000000 0.0000000000
C  2.1901600361 0.0000000000 0.0000000000
C  3.6341602802 0.0000000000 0.0000000000
C  4.2268700600 1.1172300577 0.8301200867
O  5.5220804214 0.6272300482 1.1786201000
C  5.3311004639 -0.7845500112 1.2934501171
O  4.1319704056 -1.1853200197 0.6317901015
H  -0.0657400042 -0.0108000003 0.0017400002
H  4.0395002365 0.0191500019 -1.0180901289
H  3.6725201607 1.2957201004 1.7591301203
H  4.3095402718 2.0622601509 0.2850300074
H  6.1870102882 -1.3013700247 0.8489700556
H  5.2610101700 -1.0557100773 2.3506302834
