18

C  0.8194000721 -1.2322100401 0.5158300400
C  1.6825700998 -0.0916700065 -0.0242200010
N  0.9801000953 1.0973701477 -0.4930600524
C  -0.1122300103 1.5335600376 0.3637900352
C  -1.3868200779 0.7725400925 0.1384400129
C  -1.5209900141 -0.5183500051 -0.2103100121
C  -0.4189200401 -1.5339701176 -0.3265100121
H  1.4410301447 -2.1349503994 0.5645600557
H  0.5211900473 -1.0147200823 1.5495500565
H  2.2755601406 -0.4710200429 -0.8654100895
H  2.4029102325 0.1952500194 0.7516600490
H  1.6488502026 1.8568401337 -0.6053400636
H  0.1625100225 1.5334701538 1.4250501394
H  -0.3208800256 2.5778200626 0.1052400023
H  -2.2938802242 1.3663500547 0.2314000130
H  -2.5242302418 -0.8950100541 -0.4009200037
H  -0.8264300227 -2.4925003052 0.0225300025
H  -0.1539100111 -1.6725401878 -1.3808101416
