15

C  0.9717300534 0.0032900001 0.0028200003
C  2.4941799641 -0.0331800021 -0.0591000058
N  2.9652602673 0.1765200049 -1.4336501360
C  3.0909602642 -1.2587901354 0.6202300191
O  3.3467302322 -0.8574500680 1.9751201868
N  3.5315201283 0.5475900769 1.9845901728
C  3.0600702763 0.9910400510 0.8689700961
H  0.6086300015 -0.1088200137 1.0314800739
H  0.5316000581 -0.8015700579 -0.5965300202
H  0.5806200504 0.9575300813 -0.3701600432
H  3.9854402542 0.2086700201 -1.4553900957
H  2.6338803768 1.0708600283 -1.7932701111
H  4.0503501892 -1.5588001013 0.1823900044
H  2.4229900837 -2.1256699562 0.6128300428
H  3.0330002308 2.0608401299 0.6165900826
