15

C  1.0899801254 0.0048300005 -0.1852900237
N  2.5163700581 -0.0141700013 0.0296900012
C  3.2809901237 -1.1369000673 0.2304900140
C  4.5629205704 -0.8128700852 0.4424600303
C  4.7505502701 0.6856800318 0.3963300288
C  3.3065302372 1.1119199991 0.1084900126
N  2.9517700672 2.3447003365 -0.0270000007
H  0.7068000436 1.0191600323 -0.3372100294
H  0.5699000359 -0.4225500226 0.6787400246
H  0.8292600513 -0.5856000781 -1.0703401566
H  2.8347899914 -2.1219003201 0.2068800181
H  5.3606204987 -1.5163100958 0.6264100671
H  5.0835905075 1.0882600546 1.3556301594
H  5.4121503830 0.9950200915 -0.4164500237
H  3.7653203011 2.9565300941 0.0833500028
