17

C  1.1477301121 0.1348600239 0.1108900085
C  2.6486501694 -0.0779700056 -0.0875700042
C  2.9086401463 -0.8444000483 -1.3847500086
C  3.3642902374 1.2479699850 -0.1054800078
C  3.7779703140 1.9071701765 1.1863900423
N  4.7667803764 1.3024001122 0.2998000085
H  0.9508600831 0.6609200239 1.0512100458
H  0.6176400185 -0.8227400780 0.1420800090
H  0.7202400565 0.7358700633 -0.6994200349
H  3.0165302753 -0.6896400452 0.7468400598
H  2.5528302193 -0.2841700017 -2.2566201687
H  2.4024000168 -1.8152800798 -1.3732601404
H  3.9802300930 -1.0241200924 -1.5225601196
H  3.0732002258 1.8830500841 -0.9349200726
H  3.6011402607 1.3877800703 2.1199901104
H  3.7712903023 2.9880702496 1.2434301376
H  5.2703404427 2.0165100098 -0.2295600176
