13

C  0.9525600672 -0.1205800101 0.0070900004
C  2.4627802372 0.0622100048 0.0055100005
C  2.8604202271 1.5006600618 -0.0020700002
N  3.0218403339 2.1328301430 -1.1715900898
S  3.4564201832 3.6992001534 -0.7661300302
N  3.4436101913 3.5835504532 0.9049900770
C  3.0985600948 2.3187701702 1.1501799822
H  0.6992800832 -1.1851100922 0.0167699996
H  0.4990300536 0.3295699954 -0.8820500374
H  0.4990300536 0.3456200063 0.8879100680
H  2.8895101547 -0.4476600289 -0.8675400615
H  2.8866603374 -0.4288100600 0.8902400136
H  3.0238802433 2.0077002048 2.1828501225
