20

C  0.9796300530 -0.4317600131 -0.1102500036
C  2.4843599796 -0.6517900229 -0.1115300134
C  3.2433903217 0.6775100827 -0.0699900016
C  4.7591605186 0.4755000174 -0.0155000007
O  5.1961607933 -0.2126000226 -1.1907501221
C  5.5061101913 1.8203800917 0.0673699975
N  6.9566106796 1.5921400785 -0.0093100006
H  0.4561300278 -1.3922600746 -0.1535900086
H  0.6686300635 0.1640600115 -0.9746800661
H  0.6597900391 0.0881600082 0.7988000512
H  2.7601003647 -1.2163600922 -1.0089300871
H  2.7580602169 -1.2639900446 0.7552400231
H  2.9202001095 1.2573400736 0.8031300902
H  2.9823002815 1.2557100058 -0.9653601050
H  5.0228204727 -0.1477300078 0.8477301002
H  6.1430702209 0.0263300017 -1.2752300501
H  5.2561001778 2.3482000828 0.9936100245
H  5.2239503860 2.4558002949 -0.7795600295
H  7.2616205215 1.0885699987 0.8237800598
H  7.4332003593 2.4937500954 0.0215000007
