10

N  0.9468700886 -0.1110000089 0.0022300002
C  2.2205002308 -0.0313700028 -0.0014400001
C  3.0695703030 1.1665700674 -0.0016200001
C  4.3367705345 0.7519100308 -0.0062400005
C  4.2202305794 -0.6983500719 -0.0087400004
N  3.0101401806 -1.1423100233 -0.0059900004
H  0.5295700431 0.8207400441 0.0053100004
H  2.6978902817 2.1745700836 0.0014700001
H  5.2475204468 1.3202002048 -0.0078500006
H  5.1257600784 -1.3212300539 -0.0126800006
