14

C  0.9658000469 -0.0129300011 0.2628900111
C  2.3794801235 0.0311600026 -0.2888800204
O  2.5067701340 1.2014900446 -1.0932899714
C  3.7843000889 1.2253500223 -1.6909501553
C  4.4323301315 -0.1224100143 -1.9136601686
N  3.9038002491 -1.2612100840 -1.5900200605
O  2.5900602341 -1.1511501074 -1.0687201023
H  0.7599300742 0.8662400246 0.8819900751
H  0.8032300472 -0.9188500643 0.8552400470
H  0.2331300080 -0.0174700003 -0.5524700284
H  3.0946702957 0.0607200041 0.5443300605
H  4.4574704170 1.8168801069 -1.0611701012
H  3.7113502026 1.7363500595 -2.6565802097
H  5.4398403168 -0.1177500114 -2.3610203266
