15

C  1.1537501812 -0.0145200007 0.3319100440
N  2.5887801647 -0.0591000058 0.3527000248
C  3.4627304077 1.0366101265 -0.1132300049
C  4.4469904900 -0.0479200035 -0.6187400818
N  4.7229800224 0.1569600254 -2.0554702282
C  3.2746601105 -1.0275801420 -0.3258000314
O  2.9630300999 -2.1475701332 -0.6586800218
H  0.7539300919 -0.9985401034 0.5922700763
H  0.8151400685 0.2436600178 -0.6763900518
H  0.8078500628 0.7331000566 1.0488300323
H  3.8363101482 1.6505001783 0.7116800547
H  2.9816904068 1.6737800837 -0.8629900813
H  5.3336105347 -0.2051800042 0.0021400002
H  3.8706803322 0.2623500228 -2.6098601818
H  5.1791706085 -0.6607500315 -2.4661102295
