13

C  2.5363101959 -0.9277400970 -0.8605200648
O  2.0163102150 0.3139600456 -0.4071800411
C  3.0455801487 1.2254300117 0.0198400021
C  3.5039002895 2.2267701626 -1.0017601252
C  2.6138503551 2.6608002186 0.1248800084
H  1.7018301487 -1.5566301346 -1.1826601028
H  3.0670304298 -1.4351501465 -0.0490400046
H  3.2086701393 -0.7722900510 -1.7099201679
H  3.7635302544 0.8802000880 0.7581900358
H  3.0736401081 2.1754302979 -1.9951801300
H  4.5416603088 2.5343501568 -0.9788700342
H  3.0456900597 3.2616903782 0.9164700508
H  1.5801101923 2.8956501484 -0.1017500088
