13

O  2.6391100883 -1.0995501280 0.0443100035
C  2.1150701046 0.0064400006 0.0053700004
C  2.9007203579 1.2408000231 0.0024200000
C  2.4042801857 2.4873600006 -0.0386800021
C  3.5050301552 3.4218702316 -0.0259600021
C  4.6638002396 2.7469701767 0.0225900020
C  4.3952603340 1.2662301064 0.0460400060
H  1.0205600262 0.1337200105 -0.0296700019
H  1.3654201031 2.7774600983 -0.0755300000
H  3.3918201923 4.4956803322 -0.0520800054
H  5.6495103836 3.1879003048 0.0423700027
H  4.8350501060 0.7758000493 -0.8275200725
H  4.7821106911 0.8137800694 0.9640200734
