14

O  0.8958801031 0.0355400033 0.0005700001
C  2.3399403095 0.0043200003 0.0136800008
C  3.0465602875 1.0111401081 0.9446401000
N  4.0241703987 -0.0410800017 1.3128601313
C  3.0148801804 -1.0687500238 0.9085301161
C  3.6606001854 -2.2903203964 0.2019600123
O  4.4075603485 -2.2563900948 -0.7783400416
H  0.6355300546 -0.5740400553 -0.7115600109
H  2.7323901653 0.0387500003 -1.0113400221
H  2.4389503002 1.3566401005 1.7893301249
H  3.4847302437 1.8832100630 0.4501200318
H  4.8490405083 -0.0472600013 0.7042500377
H  2.3828303814 -1.3834700584 1.7502300739
H  3.3998103142 -3.2636003494 0.6505400538
