16

O  1.5263200998 0.6882000566 2.7744402885
C  2.4176301956 1.1310900450 2.0637202263
N  3.3899002075 0.3481600285 1.5097301006
C  4.4585504532 0.8619600534 0.6527100205
C  5.6558003426 1.4811600447 1.4134900570
C  6.5694103241 0.8239800334 0.3586500287
C  5.4484004974 -0.2138400227 0.1438600123
H  2.5128102303 2.1993801594 1.8097701073
H  3.3053302765 -0.6357200742 1.7394701242
H  4.0724501610 1.5013501644 -0.1514300108
H  5.8065204620 1.0920701027 2.4276502132
H  5.6837601662 2.5735101700 1.4446700811
H  6.7594203949 1.4563400745 -0.5162300467
H  7.5190005302 0.4304600358 0.7291200161
H  5.3032402992 -0.5412100554 -0.8890700340
H  5.5409002304 -1.0971100330 0.7871300578
