15

C  0.9557800889 -0.0106500005 -0.0076200003
C  2.4313101768 0.0502600037 -0.0004000000
C  3.3141403198 1.1050200462 0.0043000001
N  4.6099104881 0.6590900421 0.0103800008
C  4.5360102654 -0.6551300287 0.0095300013
C  5.6750602722 -1.6023501158 0.0145800011
N  3.2269301414 -1.0677599907 0.0027700001
H  0.5207400322 0.9940900207 0.0012900000
H  0.5866900682 -0.5467300415 0.8730900884
H  0.5949400663 -0.5276200771 -0.9030000567
H  3.0878603458 2.1639401913 0.0036000002
H  5.3367905617 -2.6430902481 0.0231100023
H  6.2972207069 -1.4381500483 0.8993501067
H  6.2939901352 -1.4514001608 -0.8747800589
H  2.9121103287 -2.0272800922 0.0007100001
