15

C  1.1344301701 0.1551000029 0.0344400033
C  2.6277801991 -0.1339100003 -0.0471200012
C  2.9638502598 -0.8385900855 -1.2966301441
C  3.2362101078 -1.4211300611 -2.3106701374
C  3.4245502949 1.1364500523 -0.1093300134
C  3.7883703709 1.8773400784 1.1540300846
O  4.7404103279 1.0614401102 0.4588100314
H  0.8951600790 0.7047801018 0.9512000680
H  0.5541600585 -0.7742500305 0.0336400010
H  0.7926200628 0.7619300485 -0.8124700785
H  2.9263100624 -0.7417100072 0.8152200580
H  3.4853503704 -1.9381800890 -3.2091102600
H  3.2844002247 1.7173800468 -1.0131000280
H  3.4195103645 1.5136901140 2.1046602726
H  3.9198303223 2.9507603645 1.0998800993
