17

O  1.3735001087 2.8948001862 -1.5335701704
C  2.7929401398 2.9207003117 -1.4181501865
C  3.2423501015 1.8065601587 -0.4807900190
C  4.7344503403 1.7756100893 -0.3134700358
O  5.2534904480 2.7496902943 0.5983300209
C  5.4717106819 0.4623200297 -0.3484800458
C  5.6328206062 1.4437601566 -1.4732301235
H  1.1294600964 3.6026701927 -2.1546101570
H  3.0978703499 3.9016203880 -1.0424801111
H  3.2182502747 2.7841401100 -2.4188902378
H  2.8686103821 0.8479200602 -0.8603100777
H  2.7644202709 1.9366600513 0.4971900582
H  5.1922702789 2.4379000664 1.5175201893
H  4.9133906364 -0.4453700185 -0.5511900783
H  6.3129405975 0.3218200207 0.3191100359
H  6.5712904930 1.9823201895 -1.5523201227
H  5.1853103638 1.1963101625 -2.4295201302
