14

N  1.0000001192 0.0000000000 0.0000000000
C  2.1510102749 0.0000000000 0.0000000000
C  3.5950102806 0.0000000000 0.0000000000
C  4.1866002083 1.1141800880 0.8370500207
C  5.5657706261 0.5783700943 1.1477900743
O  5.4420404434 -0.8461601138 1.2357300520
C  4.1780800819 -1.2309300900 0.6688600779
H  3.9832503796 0.0751500055 -1.0233100653
H  3.6230204105 1.2480800152 1.7694901228
H  4.2142004967 2.0804202557 0.3241600394
H  6.2704806328 0.8044700623 0.3404500484
H  5.9691200256 0.9732201099 2.0842702389
H  4.3383302689 -2.0505201817 -0.0394800045
H  3.5521702766 -1.6088501215 1.4862401485
