14

C  0.9768500924 -0.1565899998 -0.0508500040
C  2.4591400623 0.0147500010 -0.0028400002
C  3.0769002438 1.2058000565 0.0148600005
C  4.5579304695 1.2813301086 0.0626100078
O  5.2904806137 0.2975800335 0.0860800073
N  5.0384607315 2.5618102551 0.0782800019
O  6.4422302246 2.7108602524 0.1240800098
H  0.6954900622 -0.7209400535 -0.9452700615
H  0.4500200450 0.8027500510 -0.0727400035
H  0.6370300651 -0.7127700448 0.8282600641
H  3.0485301018 -0.9015001059 0.0181900002
H  2.5165503025 2.1320803165 -0.0051800003
H  4.4833002090 3.4097204208 0.0614700057
H  6.7487106323 1.7768300772 0.1335900128
