10

C  0.9894800782 -0.0095300013 -0.0703300089
C  2.1899302006 -0.0166900009 -0.0312600024
C  3.6201002598 -0.0238000024 0.0176200029
C  4.3811502457 -0.7752800584 -1.0440300703
N  4.3500804901 0.6806200147 -1.0353300571
H  -0.0743100047 0.0036000002 -0.1133700088
H  4.0629801750 0.0235000011 1.0074700117
H  3.8303902149 -1.2550101280 -1.8439801931
H  5.3176603317 -1.2460601330 -0.7746300697
H  5.2169404030 1.0692701340 -0.6637700200
