15

N  1.1300201416 0.0725600049 0.4717900157
C  2.2895700932 0.2264700085 -0.0702900067
N  3.1668202877 1.2512100935 0.1473700106
C  2.7837502956 2.5163202286 0.7411800623
C  3.2438304424 3.5213704109 -0.2843100131
C  4.4480304718 2.8179001808 -0.8580601215
O  4.1026301384 1.4244301319 -0.8918001056
H  0.7109701037 -0.7955400944 0.1198200136
H  2.6725101471 -0.5230000615 -0.7864600420
H  3.3203101158 2.6478102207 1.6878601313
H  1.7105301619 2.6078703403 0.9370100498
H  2.4768002033 3.6351902485 -1.0585401058
H  3.4688503742 4.5063204765 0.1311700046
H  4.6845002174 3.1601402760 -1.8693400621
H  5.3341202736 2.9391901493 -0.2242900133
