17

C  2.1070601940 -0.1937000155 -0.0502100065
C  0.7738800645 -0.8112900257 0.2230700254
C  -0.3990800083 -1.3750700951 -0.5193200707
C  -1.6270501614 -0.5013000369 -0.2373100221
C  -1.5104900599 0.7431700230 0.2859900296
C  -0.1418900192 1.3931502104 0.5206800699
C  0.8877100348 0.6429300904 -0.2679200172
H  2.6542301178 -0.5423400402 -0.9191600680
H  2.7429802418 0.0538300015 0.7925600410
H  0.6319400072 -1.0172101259 1.2858099937
H  -0.5978200436 -2.3904099464 -0.1591800153
H  -0.2178200185 -1.4318901300 -1.5982801914
H  -2.6054301262 -0.9286500216 -0.4330700338
H  -2.3938000202 1.3311401606 0.5144000053
H  0.0875900090 1.4100500345 1.5919001102
H  -0.1780700088 2.4302701950 0.1696700156
H  0.7381300926 0.8742100596 -1.3243801594
