19

C  4.0631403923 -0.9148800969 0.2786599994
O  3.5009503365 0.0685100034 1.1349000931
C  3.4322502613 1.3658100367 0.5348300338
C  2.4118399620 2.1679003239 1.3373600245
C  4.7847304344 2.0233502388 0.5966400504
C  5.6800103188 2.0632600784 -0.6189200282
C  5.0436701775 3.3275802135 -0.1165400073
H  4.0291604996 -1.8778500557 0.7973500490
H  5.1080102921 -0.6867000461 0.0516400039
H  3.4833703041 -1.0001901388 -0.6455600262
H  3.0701301098 1.2806501389 -0.4982900321
H  2.7215902805 2.2633500099 2.3837902546
H  1.4411300421 1.6602201462 1.3375800848
H  2.2791800499 3.1737203598 0.9259901047
H  5.2520108223 1.8896402121 1.5670500994
H  5.3142204285 1.6532300711 -1.5530301332
H  6.7450203896 1.9341101646 -0.4659200311
H  5.6792702675 4.0547504425 0.3798100352
H  4.2506003380 3.7675602436 -0.7095200419
