13

C  1.0000001192 0.0000000000 0.0000000000
C  2.4440002441 0.0000000000 0.0000000000
C  3.6341602802 0.0000000000 0.0000000000
C  5.0401601791 0.0000000000 0.0000000000
C  5.7307901382 1.1450101137 0.0415600017
C  7.2041406631 1.1174800396 0.0401500016
O  7.8605103493 2.1503403187 0.0777300000
H  0.6060000658 1.0208801031 0.0116900010
H  0.6059300303 -0.5205300450 0.8782500625
H  0.6059300303 -0.5002800226 -0.8899400830
H  5.5402307510 -0.9633700848 -0.0351800025
H  5.2637305260 2.1222901344 0.0772000030
H  7.6782207489 0.1226800084 0.0035800003
