17

C  2.0386002064 -0.3147100210 1.8090001345
C  1.7054500580 0.7890000939 0.8212500811
C  2.9247601032 1.6240000725 0.5255300403
O  3.2080802917 2.7003302574 1.2946600914
C  2.2728102207 3.1977801323 2.2592003345
N  3.7286803722 1.2574200630 -0.4304700494
N  4.7960901260 2.0661101341 -0.6450500488
H  1.1477900743 -0.9114700556 2.0283000469
H  2.4200601578 0.0918600038 2.7508301735
H  2.8054502010 -0.9838801026 1.4041000605
H  0.8761800528 1.4002400637 1.1833901405
H  1.3620601892 0.3407400250 -0.1190100089
H  2.7197601795 4.0759100914 2.7338402271
H  2.0807702541 2.4514901638 3.0340402126
H  1.3479000330 3.5105602741 1.7666201591
H  5.6021704674 1.5276302099 -0.9598600864
H  5.0570402145 2.5930302143 0.1916300207
