12

O  1.0406800508 -0.0551200025 -0.0973300040
C  2.4682300091 -0.0237000026 0.0332800001
C  3.2178101540 -0.6917500496 -1.0817601681
C  3.2021701336 0.8124200106 -0.9819100499
C  4.4352703094 1.5315401554 -0.5999700427
O  5.2351703644 1.9048501253 -1.4490400553
H  0.6090500355 0.5813800693 0.4989000261
H  2.8845901489 -0.1270500124 1.0305000544
H  2.6445302963 -1.1505900621 -1.8794101477
H  4.1335000992 -1.2180300951 -0.8389100432
H  2.6038403511 1.3354601860 -1.7207301855
H  4.5917105675 1.7236101627 0.4737800360
