13

O  1.2196400166 0.0336700045 -0.0159200020
N  2.5470800400 0.0206600018 0.4556900263
C  3.2605903149 -1.1975500584 0.0535000041
C  4.5071001053 -0.6321200728 -0.5724500418
C  4.5496106148 0.7057400942 -0.6006800532
C  3.2912104130 1.1103901863 0.0407400057
N  2.9647302628 2.3507101536 0.1763300151
H  1.0111500025 0.9792900681 -0.1353000104
H  2.6971302032 -1.7926001549 -0.6726300120
H  3.4990601540 -1.8048901558 0.9310400486
H  5.2888302803 -1.2662500143 -0.9658800960
H  5.2982401848 1.3744901419 -0.9838700891
H  2.1068801880 2.4090900421 0.7285400629
