13

C  1.0089000463 -0.0260900017 -0.0720800012
C  2.4980499744 0.0195800029 0.0543200076
C  3.1756603718 1.2302800417 0.0797300041
C  4.5590205193 1.2158100605 0.1945800036
C  5.1907601357 -0.0081700003 0.2766300440
N  4.5166106224 -1.1736100912 0.2491200119
N  3.1563901901 -1.1583000422 0.1363000125
H  0.6452500820 -1.0584200621 -0.0396800041
H  0.6964800954 0.4158600271 -1.0231500864
H  0.5410700440 0.5243600607 0.7503000498
H  2.6386201382 2.1703600883 0.0117600011
H  5.1293401718 2.1369600296 0.2191000134
H  6.2673907280 -0.0943500027 0.3677200079
