21

C  2.8338103294 -0.6884500980 1.3635400534
C  2.5565402508 -0.1729400009 -0.0493900031
N  1.1033800840 -0.1687000245 -0.2884400189
C  3.1386802197 1.2486400604 -0.2796600163
N  4.5957703590 1.3790501356 -0.0581500046
C  5.3626704216 0.6161800623 -1.0460400581
C  4.9821004868 2.7919101715 -0.1199900135
H  3.9095602036 -0.7751300931 1.5492000580
H  2.3988301754 -1.6839001179 1.5100101233
H  2.4119801521 -0.0212700013 2.1239302158
H  2.9952602386 -0.8691300750 -0.7722100616
H  0.6497900486 0.4251200557 0.4061700106
H  0.7362500429 -1.1071101427 -0.1311200112
H  2.6237101555 1.9302800894 0.4117100239
H  2.8827803135 1.5839601755 -1.2945500612
H  5.1877102852 -0.4583700299 -0.9381300807
H  6.4379105568 0.7622100711 -0.8927000761
H  5.1210002899 0.9087100625 -2.0737800598
H  4.4565701485 3.3693602085 0.6485400200
H  4.7653002739 3.2378101349 -1.0970901251
H  6.0524101257 2.9070801735 0.0826800019
