13

C  0.9808300734 0.0710300058 0.0103100007
C  2.4671702385 0.0249600019 -0.0069600008
N  3.2356402874 1.0720100403 -0.0270600021
N  4.5952601433 0.6279200912 -0.0124400007
C  4.5986204147 -0.6661300659 0.0136600016
C  3.2292902470 -1.2670000792 -0.0230000000
O  3.0152103901 -2.0328602791 -1.1818101406
H  0.6324000359 1.1067101955 0.0462100059
H  0.6121000051 -0.4639400244 0.8888900876
H  0.5914900303 -0.4082400203 -0.8915300965
H  5.5004405975 -1.2901901007 0.0510500036
H  3.0397701263 -1.8584800959 0.8745101094
H  3.1994602680 -1.4569700956 -1.9479402304
