19

C  0.9688500762 -0.1336100101 0.0080400007
C  2.5014102459 -0.0036600004 -0.0050700004
C  3.0242402554 -0.8111400604 -1.2053800821
N  2.9395303726 1.4142401218 -0.0537900031
C  2.4266200066 2.1918501854 1.0810800791
C  4.4015402794 1.5413500071 -0.0867900103
H  0.5355900526 0.2484400123 0.9377601147
H  0.6659500599 -1.1842501163 -0.0663500056
H  0.5162200332 0.4045900106 -0.8322900534
H  2.8856101036 -0.4756600261 0.9094700813
H  2.7554004192 -0.3334900439 -2.1540400982
H  2.6014301777 -1.8221501112 -1.2088600397
H  4.1115903854 -0.9302101135 -1.1732301712
H  1.3372300863 2.2862501144 1.0406600237
H  2.8071501255 3.2206201553 1.0502500534
H  2.7100901604 1.7522500753 2.0426602364
H  4.8171706200 1.1397100687 -1.0159200430
H  4.8773608208 1.0374600887 0.7621300817
H  4.7005100250 2.5961802006 -0.0687500015
