16

C  0.9493100643 -0.0095200008 0.0538900048
C  2.4631903172 0.0130600007 0.0091100009
C  3.1679203510 1.0530900955 0.9136400819
C  4.2348804474 -0.0193900019 1.2286800146
O  5.4470205307 0.0331500024 0.4504100084
C  3.1969404221 -1.0866000652 0.8149600625
H  0.5613500476 -0.8692500591 -0.5012900233
H  0.5378100276 0.8974200487 -0.4000200033
H  0.5758900046 -0.0733200088 1.0809800625
H  2.8196201324 0.0663200021 -1.0295300484
H  2.5920901299 1.3639900684 1.7932201624
H  3.5289404392 1.9467800856 0.3966500461
H  4.4963207245 -0.0644700006 2.2912201881
H  5.1632804871 0.0699599981 -0.4787500203
H  3.5813202858 -1.9189701080 0.2187600136
H  2.6310303211 -1.4921901226 1.6618001461
