14

C  3.0032901764 -1.1128300428 0.4635100365
C  2.3970801830 0.0124300011 0.0658500046
C  3.0115802288 1.2885900736 0.0458500013
C  2.4757602215 2.5585701466 -0.0698399991
C  3.5420403481 3.4896502495 -0.0528300032
C  4.7076601982 2.7688801289 0.0596000031
N  4.3779201508 1.4383300543 0.1118700132
H  2.4521803856 -2.0492501259 0.4602900147
H  4.0254302025 -1.1579600573 0.8185600638
H  1.3536001444 -0.0411900021 -0.2400100231
H  1.4219700098 2.7913701534 -0.1530900151
H  3.4659802914 4.5670003891 -0.1203300133
H  5.7415404320 3.0836102962 0.1018800065
H  5.0468902588 0.6840300560 0.1733500212
