16

C  0.9919800758 0.0594800040 0.0279700030
C  2.5012800694 -0.0109900013 -0.1269300133
C  3.1614401340 1.3374800682 0.0718000010
O  2.5536503792 2.3834502697 0.2692399919
C  4.6410703659 1.3647301197 -0.0790800080
C  5.4820203781 1.9129002094 1.0454801321
N  5.4068503380 0.4771300256 0.8052100539
H  0.5460100174 -0.9261400700 -0.1344300061
H  0.5540600419 0.7566700578 -0.6929600835
H  0.7176800966 0.3986500502 1.0319701433
H  2.7503402233 -0.3697800338 -1.1321101189
H  2.9049401283 -0.7174100876 0.6060700417
H  5.0080804825 1.4917101860 -1.0901401043
H  4.9794106483 2.2810399532 1.9324902296
H  6.4146804810 2.4060301781 0.8009600043
H  6.2555904388 0.1462100148 0.3424800336
