13

C  1.0906000137 -0.1021400094 0.2607200146
C  2.3837702274 0.0144400010 -0.0472400039
C  3.2134802341 1.2750700712 -0.1247700080
N  4.5010004044 0.7474700809 -0.5143600106
C  4.4700703621 -0.6299600601 -0.6449800730
S  5.7400102615 -1.5876200199 -1.0687201023
N  3.1875402927 -1.0486100912 -0.3583600521
H  0.5954700708 -1.0668201447 0.2829800248
H  0.4928900301 0.7716400623 0.4978300333
H  3.3151702881 1.7729401588 0.8427200317
H  2.8649303913 1.9645102024 -0.8976000547
H  5.3377203941 1.2919200659 -0.6741400361
H  2.9021003246 -2.0174801350 -0.3862600327
