18

C  0.8489300609 0.0194000006 -0.2416500151
C  2.3237602711 -0.0165500008 0.0681700036
C  2.6201303005 -0.0376500003 1.5479700565
C  3.2818102837 -0.7577500343 -0.8389000893
N  2.8229801655 -1.5126801729 -2.0064802170
C  3.2507503033 0.7512700558 -0.8507300615
O  4.3750600815 1.4008201361 -0.2368600219
H  0.6443600059 0.1630000174 -1.3077402115
H  0.3683300316 0.8449400663 0.2948900163
H  0.3732000291 -0.9151700735 0.0726100057
H  3.6924803257 -0.1386500001 1.7590100765
H  2.1116201878 -0.8826200962 2.0259902477
H  2.2706801891 0.8869900703 2.0202500820
H  4.1478705406 -1.2147901058 -0.3604600430
H  2.0890700817 -1.0209000111 -2.5143301487
H  2.4147701263 -2.4003102779 -1.7144501209
H  2.8190102577 1.2404000759 -1.7173401117
H  5.1980204582 1.1651300192 -0.6962700486
