13

N  1.2956900597 -0.2470600158 -0.8284000754
C  2.5245001316 -0.2501300275 -0.2791399956
N  3.0351002216 -1.2149801254 0.3903300166
O  3.1659901142 0.9124900699 -0.4947800338
C  4.4983901978 0.9932301044 0.0290400013
C  5.0527701378 2.3159501553 -0.2917800248
C  5.5079402924 3.3977501392 -0.5540300608
H  0.9739400744 0.6845300198 -1.0656900406
H  0.5976499915 -0.8091000319 -0.3626400232
H  2.3729901314 -1.9936401844 0.3954200447
H  5.1209907532 0.2135800123 -0.4247800410
H  4.4767704010 0.8598400354 1.1167900562
H  5.9086203575 4.3558907509 -0.7887300253
