15

N  0.9226900339 0.0020600003 -0.2912500203
C  2.3526802063 -0.0558500066 0.0060700001
C  3.2397000790 -0.8852601051 -0.8728500605
C  3.3274202347 0.6166000366 -0.9302400351
C  4.4997501373 1.2889201641 -0.3630500436
C  5.7536706924 1.1975200176 -0.8257600665
H  0.5096800327 0.8490400910 0.0977400094
H  0.4333800077 -0.7785500288 0.1450899988
H  2.5941600800 -0.0551500022 1.0673300028
H  2.7977101803 -1.3921902180 -1.7230401039
H  4.0412902832 -1.4408501387 -0.4000900388
H  2.9174101353 1.1010801792 -1.8116201162
H  4.3198204041 1.9318201542 0.4965300560
H  5.9908003807 0.5806300044 -1.6872100830
H  6.5651006699 1.7389801741 -0.3512500226
