14

O  2.1308002472 -0.1254100055 -1.3850401640
C  2.2815001011 0.1581800133 0.0054600006
C  3.3999900818 1.1761200428 0.1988800168
N  3.2128202915 2.4382102489 -0.5507400632
C  2.8920402527 3.2441101074 0.6346800327
C  3.2653801441 2.0143802166 1.4760501385
O  3.3326401711 1.7765600681 2.6647100449
H  1.4994701147 -0.8626600504 -1.4588100910
H  2.5178902149 -0.7722400427 0.5318500400
H  1.3208401203 0.5337800384 0.3746400177
H  4.3974404335 0.7453400493 0.0615100041
H  2.4866201878 2.3755600452 -1.2674601078
H  3.5403401852 4.1096801758 0.7850200534
H  1.8412201405 3.5313301086 0.7230400443
