13

N  2.6059803963 -0.5878500342 -1.3299001455
C  2.3845903873 0.0615100041 -0.0322300009
C  2.8314101696 1.4873601198 -0.0124100009
N  2.1372601986 2.5775103569 0.2588300109
C  3.0545501709 3.5886802673 0.1368500143
C  4.2821502686 3.0705702305 -0.1885600090
O  4.1585302353 1.7176401615 -0.2806600332
H  2.4150002003 -1.5824501514 -1.2374801636
H  3.5938003063 -0.5000400543 -1.5665700436
H  2.9265201092 -0.4897900224 0.7440100312
H  1.3184200525 0.0113900006 0.2108200043
H  2.7846403122 4.6240806580 0.2902700305
H  5.2626800537 3.4811503887 -0.3755600154
