19

C  0.9664200544 0.0022500001 -0.0530500039
C  2.5078301430 -0.0005600000 -0.0022600000
C  2.9570603371 -0.0013900001 1.4609600306
C  3.0642702579 -1.2229300737 -0.7683000565
C  3.3323404789 -0.6702200770 -2.1324002743
C  3.3342101574 0.6666100621 -2.1323802471
C  3.0686900616 1.2199901342 -0.7682500482
H  0.5926600099 0.0038200004 -1.0829300880
H  0.5594600439 0.8872500658 0.4488500357
H  0.5563300848 -0.8821600676 0.4473300278
H  4.0497202873 -0.0041600000 1.5411701202
H  2.5833101273 -0.8866600990 1.9870201349
H  2.5878901482 0.8860300779 1.9866502285
H  2.3447201252 -2.0470201969 -0.8085100651
H  3.9991803169 -1.5985201597 -0.3374200463
H  3.5336804390 -1.2867500782 -2.9973201752
H  3.5382702351 1.2823001146 -2.9972403049
H  4.0050001144 1.5921300650 -0.3373000324
H  2.3521702290 2.0467302799 -0.8082900643
