17

C  1.0128101110 0.0556800067 -0.0818900093
C  2.5136101246 -0.0790200084 -0.0230000000
C  3.0019803047 -1.4963800907 -0.1411200166
C  3.2778201103 1.0182701349 0.1225200146
C  4.7564301491 1.0461100340 0.1854600161
N  5.3947105408 2.1637001038 0.3448000252
N  6.7382607460 2.0092101097 0.3843300045
H  0.6839800477 1.0972700119 0.0001700000
H  0.5492000580 -0.5040100217 0.7372900844
H  0.6337700486 -0.3378100097 -1.0309901237
H  2.5538001060 -2.1137802601 0.6449200511
H  4.0844902992 -1.5997501612 -0.0510500036
H  2.7119302750 -1.9128401279 -1.1116000414
H  2.8249902725 2.0039601326 0.2009100169
H  5.2859501839 0.0847100094 0.0863700062
H  7.1811804771 2.9309902191 0.3489600420
H  7.0293803215 1.6154301167 1.2826801538
