16

C  0.9807701111 0.0087200003 0.0017200002
C  2.4989802837 -0.0175800025 0.0218500011
C  3.1071803570 1.1200400591 0.8310400844
N  4.3673405647 0.5892300606 1.2502501011
C  4.3767805099 -0.7888500690 1.2641500235
O  5.2724304199 -1.4803701639 1.7156101465
C  3.0718102455 -1.2756900787 0.6866400242
H  0.5884800553 -0.8343100548 -0.5761200190
H  0.6169600487 0.9338700771 -0.4567900300
H  0.5649099946 -0.0530100055 1.0129500628
H  2.8755700588 0.0357400030 -1.0088100433
H  2.5249903202 1.3623301983 1.7261900902
H  3.2637102604 2.0254201889 0.2387200147
H  5.1088604927 1.1085600853 1.7041301727
H  3.2455003262 -2.0704300404 -0.0434800051
H  2.4410302639 -1.6421501637 1.5025202036
