17

C  1.2714501619 -0.2056200057 0.2098800093
C  2.7279400826 -0.1492500156 -0.1032900140
C  3.2197301388 -0.4856400192 -1.4868601561
C  3.2695302963 0.9438500404 -0.9972400665
C  4.5741500854 1.5979101658 -0.6550200582
C  5.0242104530 2.2025802135 -1.8866600990
C  5.3951601982 2.7009501457 -2.9018001556
H  1.0420300961 0.4584600329 1.0488400459
H  0.9864000678 -1.2236100435 0.4922900200
H  0.6545300484 0.0969400033 -0.6425100565
H  3.3301501274 -0.4758300483 0.7374401093
H  2.4945302010 -0.7281400561 -2.2556700706
H  4.1501402855 -1.0359300375 -1.5751001835
H  2.5489602089 1.6476900578 -1.4043101072
H  5.3040800095 0.8740000725 -0.2774600089
H  4.4159803391 2.3528301716 0.1218500063
H  5.7256202698 3.1452302933 -3.8122003078
