19

C  0.7464500666 0.0151000014 0.0369800031
C  2.2301800251 0.0241900012 0.1779500097
C  3.1364700794 -0.8487800360 -0.6569400430
C  2.7342700958 -1.4803200960 -1.9595102072
C  3.0023701191 -0.3904100358 -3.0022902489
C  2.7528202534 0.9314500690 -2.2707901001
C  3.1470103264 0.6448800564 -0.8490300179
H  0.3320700228 0.9537400603 0.4175300598
H  0.3229600191 -0.8034100533 0.6270400882
H  0.4058100283 -0.1060700119 -0.9944201112
H  2.5068302155 0.1558300108 1.2206500769
H  3.9979801178 -1.3126502037 -0.1949700266
H  3.3260102272 -2.3764102459 -2.1725301743
H  1.6789501905 -1.7689000368 -1.9537501335
H  4.0544004440 -0.4386600256 -3.3111102581
H  2.3846302032 -0.5015400052 -3.8981802464
H  3.3578002453 1.7347401381 -2.7020201683
H  1.7021400928 1.2285300493 -2.3405699730
H  4.0157504082 1.1987401247 -0.5177100301
