22

C  0.9512900710 -0.5201300383 0.0951700062
C  2.2387902737 -0.3191300333 0.8826600909
C  2.6835303307 1.1572600603 0.9961301088
C  1.6066402197 2.0741801262 1.6173101664
C  1.2132101059 1.7239501476 3.0465002060
N  3.9548704624 1.1730701923 1.7447401285
C  4.6187205315 2.4701302052 1.7299301624
H  0.7700500488 -1.5890201330 -0.0586200058
H  1.0108000040 -0.0419400036 -0.8873600364
H  0.0859200060 -0.1163400039 0.6287500262
H  3.0291202068 -0.8917900324 0.3790500164
H  2.1220102310 -0.7670200467 1.8771201372
H  2.8783402443 1.5142201185 -0.0246900022
H  0.7071300149 2.0599501133 0.9908300638
H  1.9487200975 3.1157102585 1.5943001509
H  0.7651500702 0.7281700373 3.1066501141
H  0.4725200236 2.4415900707 3.4138402939
H  2.0737202168 1.7594300508 3.7207400799
H  4.5875301361 0.4828100204 1.3393900394
H  4.0684103966 3.2144403458 2.3123903275
H  4.7651104927 2.8401601315 0.7104700208
H  5.6055202484 2.3732402325 2.1943199635
