13

N  0.8882100582 0.1341700107 -0.1258200109
C  2.2307102680 0.0291600022 -0.0607900023
C  3.1417403221 1.0602700710 -0.0313000008
C  4.4877505302 0.5908300877 0.0446900055
C  4.5608501434 -0.7830100656 0.0699499995
N  5.6764101982 -1.5362100601 0.1406500190
S  3.0068902969 -1.4903100729 -0.0017100001
H  0.4280000329 1.0113900900 0.0949500129
H  0.3264800310 -0.6894200444 0.0709200054
H  2.8643400669 2.1059000492 -0.0629200041
H  5.3552203178 1.2368301153 0.0817500055
H  5.6070404053 -2.5305602551 -0.0537800044
H  6.5861206055 -1.1345000267 -0.0589900054
