18

C  1.0164301395 -0.0878200084 0.2654800117
C  2.4847202301 -0.0525800027 -0.1794000119
C  2.6893503666 -0.8167001009 -1.5028500557
N  2.3136801720 -2.2242102623 -1.3877301216
C  2.9367301464 1.4142700434 -0.3131700158
C  4.3922200203 1.5388801098 -0.4939500093
C  5.5795707703 1.6470301151 -0.6432700753
H  0.8803300261 0.4694000483 1.1986900568
H  0.6773700714 -1.1125401258 0.4476500154
H  0.3628600240 0.3577200472 -0.4923500419
H  3.0850703716 -0.5364700556 0.6036400199
H  3.7382001877 -0.7690700889 -1.8145401478
H  2.0920500755 -0.3574300408 -2.2987601757
H  2.8918302059 -2.6723601818 -0.6775100827
H  2.5226902962 -2.7001602650 -2.2646501064
H  2.6549901962 1.9689301252 0.5906400681
H  2.4173002243 1.8947601318 -1.1511901617
H  6.6319804192 1.7453901768 -0.7756900787
