23

C  2.0016102791 -1.2523300648 0.3495700061
C  3.4210400581 -0.8592600822 -0.0716400072
C  3.6662702560 -1.2895700932 -1.5183000565
C  3.6225903034 0.6556200385 0.1354400218
C  5.0205602646 1.2039401531 -0.2141100168
C  5.0490107536 2.7195901871 0.0052100001
C  6.1291503906 0.5444200039 0.6066100597
H  1.8192300797 -0.9879000187 1.3964601755
H  1.8506401777 -2.3322603703 0.2481700182
H  1.2494901419 -0.7459800243 -0.2648800313
H  4.1154904366 -1.4084800482 0.5749600530
H  3.0362603664 -0.7238100171 -2.2127101421
H  3.4424602985 -2.3536603451 -1.6499601603
H  4.7112002373 -1.1417800188 -1.8064601421
H  3.4016702175 0.8965400457 1.1842501163
H  2.8763902187 1.1949601173 -0.4637100399
H  5.2241306305 1.0261200666 -1.2764000893
H  4.8654804230 2.9738802910 1.0548801422
H  4.2848305702 3.2153501511 -0.6029900312
H  6.0215101242 3.1358902454 -0.2789800167
H  5.9400906563 0.6431100368 1.6808900833
H  7.0990505219 1.0059801340 0.3910400271
H  6.2194805145 -0.5204200149 0.3718200326
