18

C  1.1083800793 0.1236700118 1.0471600294
N  2.5646302700 0.2234900147 1.0787701607
C  3.0561602116 1.4738901854 0.4609800279
C  2.6632201672 2.7200303078 1.2944800854
O  2.9109902382 2.5000202656 2.6870102882
C  4.5607900620 1.3648000956 0.3871300519
C  5.2778301239 1.4042201042 -0.7437700629
H  0.8094600439 -0.8733500242 1.3870301247
H  0.7116600871 0.2662000060 0.0372700021
H  0.6417700052 0.8451100588 1.7246801853
H  2.9464101791 -0.5543600321 0.5365700722
H  2.6522502899 1.5805101395 -0.5542200804
H  1.5962601900 2.9388301373 1.1800400019
H  3.2222802639 3.6081302166 0.9811900258
H  2.8261003494 1.5305000544 2.8002302647
H  5.0855102539 1.2589101791 1.3363001347
H  4.8120408058 1.5163100958 -1.7172601223
H  6.3609704971 1.3272500038 -0.7120500803
