18

C  2.0340702534 -4.1692805290 0.6418300271
C  3.2955501080 -3.5304002762 1.1465700865
C  4.1587004662 -4.2118902206 1.9202702045
O  3.4371001720 -2.2258403301 0.7289900780
C  4.5791301727 -1.4922101498 1.1877601147
C  4.5303802490 -0.0763600096 0.5985000730
N  3.3837504387 0.6883500218 1.0970000029
H  1.9738601446 -4.0794506073 -0.4479200542
H  1.1612000465 -3.6733901501 1.0785801411
H  1.9785200357 -5.2337903976 0.8916100860
H  3.9591801167 -5.2413506508 2.2001602650
H  5.0763406754 -3.7853603363 2.3034200668
H  5.4952201843 -1.9831701517 0.8375600576
H  4.5825304985 -1.4413601160 2.2835900784
H  4.4584703445 -0.1372800171 -0.4929000437
H  5.4496502876 0.4598300159 0.8537101150
H  2.5407402515 0.1329800040 0.9351700544
H  3.2778103352 1.5362201929 0.5429600477
