13

C  1.1028600931 -0.0832600072 0.1692900211
C  2.4236903191 -0.0400300026 -0.0213300008
C  3.2882502079 1.1904600859 0.0233400017
O  4.6210603714 0.7028599977 -0.2665300369
C  4.5524306297 -0.6476700306 -0.4485100210
N  5.6048102379 -1.3196600676 -0.7196500301
N  3.2738301754 -1.0616800785 -0.2980600297
H  0.5526700616 -1.0166300535 0.1165400073
H  0.5371500254 0.8182400465 0.3819200397
H  3.2983703613 1.6542701721 1.0138601065
H  3.0120301247 1.9200600386 -0.7432301044
H  5.3584604263 -2.3043701649 -0.8203000426
H  2.9652302265 -2.0137400627 -0.3965800405
