16

C  0.8480600715 0.2979200184 -0.2854700089
C  2.2938802242 0.0951400101 0.0864500031
C  2.5874702930 0.1744200140 1.5660802126
O  2.3001801968 -1.0744800568 2.1806800365
C  3.1128702164 -0.8675301075 -0.7492000461
C  3.3430202007 0.6101600528 -0.8792300820
H  0.6936900616 0.2473500222 -1.3689401150
H  0.5013500452 1.2788200378 0.0554200038
H  0.2190100253 -0.4697400331 0.1757900119
H  1.9878101349 0.9524900913 2.0494201183
H  3.6415104866 0.4010000527 1.7573702335
H  1.3953300714 -1.3184601068 1.9274702072
H  2.6319401264 -1.3830701113 -1.5729901791
H  3.8737103939 -1.4603400230 -0.2513300180
H  4.2702703476 1.0116701126 -0.4844100475
H  3.0188603401 1.0938900709 -1.7945101261
