18

C  1.0014801025 0.0073500006 -0.0785900056
C  2.5182001591 -0.0193700008 0.0661200061
N  2.9398303032 -1.2534900904 0.7661100626
C  3.3414101601 -0.8524500728 2.1350803375
C  4.6195507050 -1.5588600636 2.5695502758
C  3.4929201603 0.6278100610 2.0722701550
C  3.0234003067 1.0962501764 0.9135600924
H  0.6529400349 -0.8393900394 -0.6803400517
H  0.6745300293 0.9279000759 -0.5756100416
H  0.4955700636 -0.0420200042 0.8936700225
H  2.9842503071 0.0168099999 -0.9248700738
H  3.7652602196 -1.6081501245 0.2852500081
H  2.5328800678 -1.1050500870 2.8313901424
H  5.4637603760 -1.3177101612 1.9141302109
H  4.4845504761 -2.6459000111 2.5611300468
H  4.8952302933 -1.2654100657 3.5882003307
H  3.8841602802 1.2352700233 2.8753502369
H  2.9864799976 2.1375401020 0.6300500631
