20

C  0.9259001017 0.1460100114 -0.2718800306
C  2.4107303619 0.1176300123 0.0077400007
C  2.7193503380 -0.0113800010 1.4826800823
C  3.3006701469 -0.6221200228 -0.9657600522
C  3.3732800484 0.8846200705 -0.9114400148
C  2.8383400440 1.6539000273 -2.0987102985
N  4.5849604607 1.4917401075 -0.3321300447
H  0.6889600158 0.0250800028 -1.3331900835
H  0.4963600338 1.0930600166 0.0706900060
H  0.4218600094 -0.6694100499 0.2586500347
H  3.7782402039 -0.2038900107 1.6804901361
H  2.1579301357 -0.8445900679 1.9173601866
H  2.4334802628 0.9050700665 2.0077800751
H  2.8477702141 -1.0859100819 -1.8363701105
H  4.1356601715 -1.1967601776 -0.5797400475
H  2.0711600780 1.1052601337 -2.6521103382
H  3.6468403339 1.8700002432 -2.8053300381
H  2.4090001583 2.6054103374 -1.7691301107
H  5.0686507225 0.8520801067 0.2944500148
H  4.3381905556 2.3084702492 0.2253500223
