18

C  1.3046600819 2.8919501305 0.0994300097
C  2.7807600498 2.6532201767 0.0597100034
C  3.3355202675 1.4319601059 0.1050700024
C  4.7624006271 1.1194400787 0.0586000048
C  5.1327104568 -0.1741100252 0.1158400103
C  5.7525806427 2.2653403282 -0.0614700057
N  7.1624002457 1.8775300980 -0.0234200023
H  1.0464000702 3.4821803570 0.9837700725
H  0.7327800393 1.9593602419 0.1307700127
H  0.9953801036 3.4502401352 -0.7894700766
H  3.3913004398 3.5482501984 -0.0154500008
H  2.6668303013 0.5734400153 0.1778500080
H  4.4129400253 -0.9822500944 0.1968200207
H  6.1759505272 -0.4696800411 0.0638600066
H  5.5855207443 2.9806003571 0.7526100874
H  5.5750203133 2.7886803150 -1.0083200932
H  7.3723406792 1.5325700045 0.9118900895
H  7.7328305244 2.7111902237 -0.1492800117
