15

N  1.0654500723 -0.0300100036 0.3331500292
C  2.2125501633 -0.0605500042 0.1666700095
C  3.6634004116 -0.0927800089 -0.0558500066
C  4.2832303047 1.2791399956 0.2006600201
C  5.7542200089 1.2803400755 -0.0911000073
C  6.6960802078 2.0828201771 0.7700800300
N  6.6613607407 0.6235200167 0.8418101072
H  3.8706302643 -0.4104400277 -1.0844200850
H  4.1195302010 -0.8413200378 0.6024399996
H  4.0901603699 1.5837800503 1.2378900051
H  3.8034005165 2.0333502293 -0.4360900223
H  5.9796404839 1.1790101528 -1.1467001438
H  6.3067307472 2.6058800220 1.6350400448
H  7.5713505745 2.5265603065 0.3121100366
H  7.4698605537 0.2234200239 0.3598200381
