17

C  0.9391100407 -0.1759600192 0.0397100039
N  2.3915302753 -0.0948700085 0.1151800081
C  2.8534603119 1.2732501030 -0.1454200000
C  4.3785300255 1.3889501095 -0.0661800057
O  4.7448902130 2.7423202991 -0.3525400162
N  6.1435904503 2.8446502686 -0.3061400354
C  6.4738006592 4.0710601807 -0.5273000002
H  0.6198900342 -1.2021600008 0.2474600226
H  0.5728000402 0.0956200063 -0.9558900595
H  0.4665800333 0.4725600481 0.7847300768
H  2.7992701530 -0.7276800275 -0.5731300116
H  2.4121003151 1.9679901600 0.5804900527
H  2.5231304169 1.6068900824 -1.1376101971
H  4.8502507210 0.7254700661 -0.8007900715
H  4.7315707207 1.1230700016 0.9369500279
H  7.5354304314 4.3618803024 -0.5317000747
H  5.7347402573 4.8677206039 -0.7168200612
