12

C  0.9882400632 -0.0114900004 0.0290900022
C  2.4737701416 0.0331100039 0.0918600038
C  3.2484803200 1.1162400246 0.0072000003
C  4.6316900253 0.6115600467 0.0224400032
O  5.6343302727 1.2973601818 -0.0729000121
O  4.5746703148 -0.7613400221 0.1086300090
N  3.2210402489 -1.1104701757 0.2422100157
H  0.5591500401 0.9932100773 -0.0424900018
H  0.5810300112 -0.4881100357 0.9263100624
H  0.6599000692 -0.5823700428 -0.8453800678
H  2.9852802753 2.1494803429 -0.1137800068
H  2.9370603561 -1.8893901110 -0.3513100147
