11

C  0.0004600000 1.2688900232 0.0088600004
C  1.1647701263 0.3231199980 0.0041100001
C  0.7209700346 -0.9438700676 -0.0026100001
C  -0.7212000489 -0.9425000548 -0.0028400002
C  -1.1644400358 0.3225600123 0.0037100003
H  0.0001000000 1.9023301601 -0.8833000660
H  -0.0001900000 1.8929500580 0.9076101184
H  2.2005002499 0.6260900497 0.0058600004
H  1.3279300928 -1.8356602192 -0.0071700006
H  -1.3288900852 -1.8340802193 -0.0076200003
H  -2.1999702454 0.6259800196 0.0051400005
