19

C  0.9492300749 -0.1494400054 -0.0276600011
C  2.4422001839 0.1614399999 -0.0631300062
C  2.8410403728 1.6233000755 0.0094499998
C  1.9779301882 2.6458103657 0.1423300058
C  4.3384199142 1.8931100368 -0.0356500037
C  4.9258203506 1.8204901218 -1.4480201006
O  4.4573006630 2.8955001831 -2.2545800209
H  0.7914000750 -1.2322201729 -0.0821800083
H  0.4284800291 0.3058100045 -0.8762400746
H  0.4886600673 0.2064600289 0.8990900517
H  2.8508203030 -0.2699500322 -0.9846701026
H  2.9170403481 -0.3663200140 0.7729001045
H  0.9033001065 2.5035800934 0.1961400211
H  2.3259301186 3.6735901833 0.2046900094
H  4.8491902351 1.1687000990 0.6107700467
H  4.5478601456 2.8852601051 0.3830300272
H  4.6855106354 0.8770900369 -1.9486900568
H  6.0157904625 1.9031401873 -1.3966901302
H  3.4845802784 2.8519301414 -2.2461302280
