19

C  1.4775600433 -0.2712600231 0.3397300243
C  2.5339202881 0.4205300510 -0.5256600380
C  2.8452303410 -0.4299000204 -1.7711300850
O  3.9561002254 0.0948100090 -2.4931201935
C  2.1208600998 1.8517601490 -0.8692700267
C  0.8678300381 2.0627400875 -1.6765202284
C  2.8566803932 2.9003601074 -0.4602300227
H  1.2318600416 0.3318300247 1.2207201719
H  1.8468301296 -1.2402600050 0.6934500933
H  0.5521900654 -0.4551600218 -0.2167400122
H  3.4582703114 0.4673600495 0.0672999993
H  1.9896601439 -0.4990600348 -2.4506502151
H  3.1101803780 -1.4503601789 -1.4740900993
H  3.7701501846 1.0358000994 -2.6605100632
H  -0.0053200005 1.6653101444 -1.1508901119
H  0.9458400607 1.5717800856 -2.6509301662
H  0.6779600382 3.1254000664 -1.8644001484
H  3.7627804279 2.7689802647 0.1247900054
H  2.5741202831 3.9231703281 -0.6926800609
