9

C  1.0000001192 0.0000000000 0.0000000000
C  2.4440002441 0.0000000000 0.0000000000
C  3.6341602802 0.0000000000 0.0000000000
C  5.0762000084 0.0115900012 -0.0000000000
O  5.6974000931 1.0644600391 -0.0000000000
H  0.6059300303 1.0208600760 0.0116800005
H  0.6059100032 -0.5205400586 0.8782400489
H  0.6059100032 -0.5003000498 -0.8899300694
H  5.5615901947 -0.9768500924 -0.0000000000
