13

O  0.9623200893 2.3740401268 -0.0887100026
N  2.3508203030 2.5475802422 -0.0952800065
C  2.9140703678 1.3898200989 0.0273100026
C  4.4091205597 1.2282201052 0.0561700054
C  5.1604804993 2.5454802513 -0.0740800053
C  6.6100802422 2.3196203709 -0.0378500037
N  7.7542905807 2.1277601719 -0.0086500002
H  0.6323900819 3.2876904011 -0.1844300181
H  2.3172903061 0.4638300538 0.1170900092
H  4.6796503067 0.5426000357 -0.7564300299
H  4.6654601097 0.7223600745 0.9946501255
H  4.8773403168 3.2246704102 0.7400400639
H  4.8920807838 3.0443401337 -1.0115100145
