13

C  2.9258403778 -1.1863701344 0.4772200286
N  2.3739900589 0.0765100047 0.0336300060
C  3.1010403633 1.2247300148 0.0142100006
C  2.5302202702 2.4641201496 -0.1752300113
S  3.7615201473 3.6541602612 -0.1381500065
N  5.0180902481 2.5975501537 0.1136100069
C  4.5158004761 1.3646100760 0.1641000211
H  2.1757402420 -1.9750701189 0.3595200479
H  3.2056503296 -1.1404601336 1.5345401764
H  3.8002803326 -1.4701100588 -0.1172500104
H  1.3580601215 0.1222300157 0.0615200065
H  1.4955601692 2.7284901142 -0.3289300203
H  5.2232303619 0.5610600114 0.3168900013
