15

C  1.1449401379 -0.2497300059 -0.0226500016
C  2.6589500904 -0.1868000180 -0.0805300027
O  3.0573902130 1.1758401394 0.1284100115
C  4.3899602890 1.4178401232 0.0996900052
N  5.2842502594 0.5122600198 -0.1077600047
N  6.5624604225 1.0642300844 -0.0795100033
C  7.4528703690 0.1596700102 -0.3115700185
H  0.7910701036 -1.2743901014 -0.1671000123
H  0.7029200792 0.3889500201 -0.7947800756
H  0.7797700763 0.1182100102 0.9420800805
H  3.0047903061 -0.5281500220 -1.0624800920
H  3.0847702026 -0.8202800155 0.7054000497
H  4.5935106277 2.4863502979 0.2752300203
H  8.5194902420 0.4313100278 -0.3242300153
H  7.2025103569 -0.8976100683 -0.5037200451
