19

C  2.2358300686 -0.4815300405 -1.4338001013
C  2.4323401451 0.0337700024 -0.0172300003
C  3.2604200840 1.3109700680 -0.0213500019
C  2.5777602196 2.6014301777 -0.5415400267
C  3.2635004520 3.3703701496 0.6084800363
O  4.4889202118 4.0553703308 0.2824700177
C  3.4042401314 2.0216701031 1.3473901749
H  1.6583100557 -1.4107100964 -1.4237900972
H  3.1983201504 -0.6812500358 -1.9150902033
H  1.6986601353 0.2477400154 -2.0480000973
H  2.9424901009 -0.7341000438 0.5763200521
H  1.4538700581 0.2045500129 0.4477600455
H  4.2412004471 1.1464101076 -0.4901600480
H  1.4833902121 2.6035401821 -0.4731900394
H  2.8666603565 2.9014604092 -1.5528800488
H  2.5905900002 4.0691404343 1.1173599958
H  5.0482401848 3.3977904320 -0.1644900143
H  4.3579201698 1.8554401398 1.8564101458
H  2.5900502205 1.8286901712 2.0559601784
