12

C  0.9326300621 0.0241300017 -0.0069200005
C  2.4042100906 0.0136500010 -0.0023100001
C  3.3211400509 0.9917100668 0.0032400002
N  4.6528306007 0.6251900196 0.0076000006
C  4.6390604973 -0.6650900841 0.0052500004
C  3.2351102829 -1.1858100891 -0.0012400001
O  2.9134101868 -2.3499100208 -0.0044300002
H  0.5417500138 1.0465101004 0.0030400001
H  0.5417500138 -0.4950300455 0.8736600280
H  0.5474400520 -0.4759300351 -0.9009401202
H  3.0764703751 2.0492300987 0.0046100006
H  5.4803605080 -1.3698801994 0.0073800008
