15

C  1.1347801685 -0.1054700017 -0.5861800313
C  2.3698601723 0.1090500131 -0.1224900112
N  3.0296502113 1.2978601456 0.0891900063
C  4.3884706497 1.3819601536 0.5999900699
C  4.6218900681 2.8994400501 0.6646300554
N  3.3975300789 3.5683302879 0.1434100121
C  2.6036503315 2.5753300190 -0.1294500083
H  0.7565200329 -1.1167200804 -0.6958500743
H  0.4717200398 0.7047300339 -0.8660800457
H  2.9797601700 -0.7540300488 0.1401600242
H  5.1016502380 0.9047500491 -0.0812300071
H  4.4782600403 0.9266700745 1.5915801525
H  5.4869899750 3.1888000965 0.0586700067
H  4.8031201363 3.2226800919 1.6957001686
H  1.5906301737 2.7084503174 -0.5373499990
