15

C  1.0266201496 0.1106200069 -0.1770000160
C  2.5327200890 0.1735600233 -0.1979600191
O  3.2061700821 -0.8259900212 -0.4578300416
C  3.2299702168 1.4683301449 0.1022800058
C  2.5596501827 2.6229102612 0.2447300255
C  4.7230706215 1.3720701933 0.2443600148
O  5.3100900650 0.9328400493 -0.9734200835
H  0.6054700017 0.7802900672 -0.9293100834
H  0.6571600437 0.3627300560 0.8210000396
H  0.7064800262 -0.9087500572 -0.4122300446
H  1.4830901623 2.7080202103 0.1417700201
H  3.0906102657 3.5476703644 0.4574300349
H  4.9963006973 0.6737800241 1.0432600975
H  5.1665005684 2.3414301872 0.4925800562
H  4.9416203499 0.0387800038 -1.1333800554
