17

C  0.7733500600 1.4559700489 -1.1057400703
C  2.2549600601 1.2593700886 -1.1154000759
C  3.0588603020 1.5885601044 -0.0919300020
C  4.5469102859 1.3887000084 -0.0886600018
C  5.2225003242 2.7521300316 -0.0392300040
N  5.4805407524 3.4163503647 -1.1997600794
N  5.5259103775 3.3267602921 1.0804100037
H  0.4842900634 2.1533000469 -1.8978701830
H  0.4143800437 1.8534301519 -0.1510100067
H  0.2704400420 0.5010700226 -1.2869001627
H  2.6743102074 0.8181600571 -2.0170302391
H  2.6325702667 2.0291202068 0.8080400825
H  4.8875203133 0.8555800319 -0.9832100868
H  4.8408002853 0.7998200655 0.7863200903
H  4.8211503029 3.2610602379 -1.9533002377
H  5.6770000458 4.3979306221 -1.0320501328
H  5.2655806541 2.7265901566 1.8699101210
