21

C  1.4152101278 -0.4230500460 -0.1591700166
N  2.8262002468 -0.0744200051 -0.0585900061
C  3.0029902458 1.3825900555 -0.0557100065
C  4.4949903488 1.7193300724 0.0446400009
C  4.7577404976 3.2317302227 0.1231800094
C  6.2435002327 3.5080304146 0.3493000269
N  4.3165903091 3.9064702988 -1.1002501249
H  1.3083400726 -1.5123901367 -0.1610000134
H  0.9711700678 -0.0402100012 -1.0842500925
H  0.8499200940 -0.0381800048 0.6959800720
H  3.3238303661 -0.4681700468 -0.8565300703
H  2.4747402668 1.8189101219 0.8006900549
H  2.5805301666 1.8101601601 -0.9724400640
H  5.0307703018 1.2900301218 -0.8126000762
H  4.9083404541 1.2417100668 0.9430100322
H  4.1947202682 3.6488103867 0.9662000537
H  6.8566808701 3.1090502739 -0.4674600363
H  6.5851502419 3.0461602211 1.2822000980
H  6.4378905296 4.5842504501 0.4232700169
H  4.8614902496 3.5691504478 -1.8940700293
H  4.5179705620 4.9041600227 -1.0301200151
