16

N  0.9741600752 0.0729500055 0.1819300056
C  2.4029800892 0.0873200074 -0.0970000029
C  3.1023101807 1.0744200945 0.8556900620
C  4.1394605637 -0.0284200013 1.1601301432
O  5.3890805244 0.0268900022 0.4353300333
C  3.1080000401 -1.0771701336 0.6523100138
O  3.6413502693 -2.1171703339 -0.1987500191
H  0.5067800283 -0.7550200820 -0.1936100125
H  0.4735700488 0.8680800200 -0.2140200138
H  2.6771800518 0.1870700121 -1.1546801329
H  2.5317101479 1.3800700903 1.7415300608
H  3.5030102730 1.9723701477 0.3741100430
H  4.3551101685 -0.1236400083 2.2300603390
H  5.1401004791 0.1067300066 -0.5039900541
H  2.5346803665 -1.5192900896 1.4762201309
H  4.5223703384 -2.2983300686 0.1733400226
