18

C  2.7997601032 1.9218200445 0.6753500104
C  4.1532301903 1.5694701672 0.0856200084
O  4.8550105095 2.7855801582 -0.1681600213
C  6.1227407455 2.7077503204 -0.7117500305
C  6.7622404099 1.5762001276 -1.0540800095
C  6.7706503868 4.0628399849 -0.9006300569
N  5.9631605148 4.9216303825 -1.7650901079
H  2.2213401794 1.0183501244 0.8899000883
H  2.2298703194 2.5500802994 -0.0168700013
H  2.9189403057 2.4936201572 1.6010301113
H  4.0057001114 1.0157600641 -0.8482700586
H  4.7106204033 0.9547700882 0.8017800450
H  6.3316407204 0.5899300575 -0.9341900349
H  7.7617006302 1.6103301048 -1.4780100584
H  7.7733802795 3.9719803333 -1.3318700790
H  6.8863105774 4.5459303856 0.0770500079
H  5.8247804642 4.4385704994 -2.6514201164
H  5.0340399742 4.9764003754 -1.3446500301
