17

C  0.9634600282 0.0311000012 -0.0589300059
C  2.4826502800 -0.0315300003 -0.0184400026
C  3.0198502541 -1.2721000910 0.6845800877
N  3.1970801353 -0.7792100906 2.0467603207
N  3.4374401569 0.5550100803 2.0692100525
C  3.0284500122 1.0069301128 0.9233400822
C  3.0864803791 2.4527401924 0.5589600205
H  0.5601100326 -0.7904200554 -0.6593900919
H  0.6268600225 0.9735800624 -0.5035300255
H  0.5241800547 -0.0309300032 0.9427200556
H  2.9139702320 0.0868600085 -1.0170301199
H  3.9911303520 -1.5574101210 0.2642700374
H  2.3459401131 -2.1317901611 0.6377500892
H  3.8883802891 -1.3089200258 2.5797102451
H  2.7160801888 2.6074702740 -0.4572400451
H  4.1212301254 2.7999401093 0.6192300320
H  2.4730200768 3.0275802612 1.2573400736
