13

C  -1.2957600355 0.6497900486 0.0665500015
C  -1.0191501379 -0.7888100743 -0.1520400196
O  -0.3038300276 -1.4631401300 0.8876700401
C  0.4510600269 -1.0971801281 -0.2753800154
C  1.1460000277 0.2688400149 -0.2691100240
O  0.9931500554 1.0872700214 0.8995100856
C  0.0310200024 1.2753101587 -0.1424300075
H  -2.0144202709 1.0189200640 -0.6722300053
H  -1.6897801161 0.8459400535 1.0685900450
H  -1.7574601173 -1.3367601633 -0.7140300274
H  0.7757400870 -1.8705401421 -0.9550200701
H  1.9655401707 0.4679700434 -0.9445800185
H  0.0408900045 2.1990201473 -0.6981600523
