15

C  2.1677901745 -0.3912500143 -1.5991200209
O  2.1691000462 0.2428600192 -0.3271000385
C  3.1864404678 1.2303100824 -0.2052000165
C  3.4259302616 1.5702900887 1.2738000154
O  3.4432401657 3.0096201897 1.4216300249
C  2.9148900509 3.4592602253 0.2325900197
C  2.7292003632 2.5461304188 -0.7123301029
H  1.3592400551 -1.1271600723 -1.6139100790
H  3.1146502495 -0.9136300683 -1.7667901516
H  1.9908702374 0.3340700269 -2.3985502720
H  4.1180605888 0.9071701169 -0.6845100522
H  4.3914604187 1.1803400517 1.6148501635
H  2.6463401318 1.1624100208 1.9289401770
H  2.7302501202 4.5198502541 0.1900300235
H  2.3437101841 2.7382402420 -1.7007502317
