16

C  2.4133503437 -0.7428800464 -1.1745001078
N  2.5961604118 -0.2189300209 0.1746100187
C  2.9557802677 1.2154999971 0.1615200043
C  4.4227204323 1.4485501051 -0.1974500120
O  5.2620606422 0.5710000396 -0.3590800464
O  4.6678900719 2.7890303135 -0.2738499939
C  6.0271501541 3.1154201031 -0.5610100627
H  2.1219899654 -1.7957901955 -1.1141400337
H  3.3300502300 -0.6841600537 -1.7685900927
H  1.6125000715 -0.2118500173 -1.6988101006
H  3.3650503159 -0.7312400341 0.6162000299
H  2.8033204079 1.6075500250 1.1726500988
H  2.3119502068 1.7710400820 -0.5283400416
H  6.1299104691 4.2045702934 -0.5224800110
H  6.2939300537 2.7771100998 -1.5676201582
H  6.6984405518 2.6806302071 0.1857800186
