12

C  1.6124302149 -0.4497500360 -0.4855900407
O  3.0061903000 -0.2251600176 -0.3083700240
N  3.2234601974 1.1578400135 -0.2214600146
C  4.4881405830 1.3672001362 -0.0610700026
C  5.0259203911 2.7568702698 0.0644100010
H  1.4417101145 -1.5274101496 -0.5532700419
H  1.2673600912 0.0210200027 -1.4113500118
H  1.0534601212 -0.0569100045 0.3693700135
H  5.2180004120 0.5401600599 -0.0103400005
H  4.2231602669 3.4954102039 0.0014900002
H  5.7487001419 2.9299101830 -0.7369700670
H  5.5389604568 2.8520102501 1.0247801542
