12

C  0.9762300849 -0.2240400165 -0.3625900447
C  2.3093800545 -0.2584100366 -0.3182100058
O  3.0460100174 0.8309400678 0.0680000037
C  4.4144701958 0.7358400226 0.1115600094
C  5.1774406433 1.7752001286 0.4635000229
C  6.5921607018 1.6842601299 0.5119700432
N  7.7476606369 1.6062000990 0.5502300262
H  0.4057300091 -1.0930100679 -0.6713700891
H  0.4313100278 0.6739700437 -0.0907300040
H  2.8732302189 -1.1415500641 -0.5850000381
H  4.8200001717 -0.2316300124 -0.1555500031
H  4.7248606682 2.7248799801 0.7233600616
