19

C  0.6067300439 0.4464600384 -0.1518700123
C  1.9370701313 -0.2607300282 -0.1225000098
C  1.8448201418 -1.7576200962 -0.2385500073
C  3.0843901634 0.4377300143 -0.0076300004
C  4.4953904152 -0.0973700061 -0.0018600001
C  5.2202701569 0.2113900036 1.3089801073
O  4.6719307899 -0.5367800593 2.3890502453
H  0.7119100690 1.5346601009 -0.0862600058
H  -0.0134800011 0.1220700070 0.6908300519
H  0.0769400075 0.2184500247 -1.0828301907
H  1.0132501125 -2.1372601986 0.3662000299
H  2.7422504425 -2.2714602947 0.1137400046
H  1.6672301292 -2.0426001549 -1.2808101177
H  3.0220303535 1.5241000652 0.0634300038
H  5.0369000435 0.3773600161 -0.8285000324
H  4.5203104019 -1.1748701334 -0.1847000122
H  5.1699004173 1.2766600847 1.5593301058
H  6.2760305405 -0.0646600053 1.2216700315
H  3.7137601376 -0.3620700240 2.3985300064
