15

C  1.0000001192 0.0000000000 0.0000000000
C  2.4440002441 0.0000000000 0.0000000000
C  3.6341602802 0.0000000000 0.0000000000
C  5.0781602859 0.0000000000 0.0000000000
C  5.6662802696 1.3868001699 -0.1620099992
C  5.2732205391 2.1749200821 -1.3862800598
O  6.4841003418 1.8377201557 0.6440000534
H  0.6061200500 1.0209500790 0.0099300006
H  0.6058800817 -0.5190200210 0.8791100979
H  0.6059600711 -0.5017100573 -0.8891400695
H  5.4732804298 -0.6247900128 -0.8083500862
H  5.4539208412 -0.4192400277 0.9402701259
H  5.4567403793 1.5770000219 -2.2826802731
H  5.8789205551 3.0838303566 -1.4452700615
H  4.2204103470 2.4601202011 -1.3286100626
