17

C  3.5589101315 1.1161400080 -0.4916600585
O  3.3576202393 1.8253201246 -1.7146501541
N  3.4740502834 3.1967802048 -1.4167701006
C  2.1822800636 3.8657302856 -1.4188700914
C  4.5988001823 3.7739901543 -1.9867401123
C  4.7707099915 5.2735204697 -1.9491301775
N  5.5372800827 3.0803103447 -2.5565302372
H  3.7027502060 0.0591800027 -0.7325000763
H  2.6744103432 1.2125301361 0.1451999992
H  4.4476504326 1.4741700888 0.0374800004
H  1.4422401190 3.2738404274 -0.8702100515
H  1.8224600554 4.0047402382 -2.4431102276
H  2.2455601692 4.8422203064 -0.9295400977
H  4.6111302376 5.6371202469 -0.9301900864
H  4.0441904068 5.7411804199 -2.6195104122
H  5.7778801918 5.5536503792 -2.2695801258
H  5.2236704826 2.1028501987 -2.5010702610
