15

O  1.0629701614 -0.2036600113 0.1409800202
C  2.4112403393 0.1618700027 -0.0809000060
C  2.7039802074 1.4328501225 0.6660400033
C  3.6810603142 1.2213200331 1.5629401207
C  4.1831502914 -0.1611100137 1.5701801777
C  3.2788403034 -1.2933001518 1.9676301479
C  3.3458201885 -0.8713500500 0.5191000700
H  0.9956901073 -1.1492301226 -0.0670699999
H  2.5895001888 0.2865200341 -1.1536101103
H  2.1801903248 2.3623001575 0.5047700405
H  4.0626602173 1.9787400961 2.2364902496
H  5.2554106712 -0.3058800399 1.5607100725
H  3.7416803837 -2.2335300446 2.2440900803
H  2.3807601929 -1.0666000843 2.5325801373
H  3.8387603760 -1.5035700798 -0.2043400109
