18

C  0.1539700180 -1.0291800499 0.6289800406
C  1.6053401232 -1.1229801178 0.1568800211
N  1.7271701097 -2.1808800697 -0.8587700725
C  2.1157801151 0.2269300073 -0.3919600248
O  1.2641500235 0.6716900468 -1.4555201530
C  1.5871200562 1.8491001129 -2.0659601688
C  2.6177902222 2.6687901020 -1.8292801380
H  0.0439700037 -0.2404100150 1.3805301189
H  -0.1683700234 -1.9705801010 1.0875700712
H  -0.5319500566 -0.8080500364 -0.1959600151
H  2.2337002754 -1.4061901569 1.0091100931
H  1.2709600925 -1.8540000916 -1.7138100863
H  1.2112700939 -3.0075802803 -0.5615900159
H  3.1431500912 0.1062800139 -0.7583300471
H  2.1072001457 0.9677900672 0.4172200263
H  0.8524800539 2.0649900436 -2.8349902630
H  3.3678102493 2.4747600555 -1.0729200840
H  2.7326402664 3.5756101608 -2.4149301052
