18

N  2.1030001640 -0.2925000191 -1.4918900728
C  2.3935301304 0.0636200085 -0.1079100072
C  3.1071102619 1.4074701071 -0.0235600006
C  2.3117203712 2.5958302021 -0.5274300575
C  3.0309803486 3.7515702248 0.1356000155
O  3.5480902195 3.2621800900 1.3825801611
C  3.3988204002 1.8346401453 1.4052801132
H  1.6611201763 -1.2109000683 -1.5204401016
H  2.9726002216 -0.3801300228 -2.0167400837
H  3.0163800716 -0.7168800831 0.3427000344
H  1.4525500536 0.0939100087 0.4529200196
H  4.0556902885 1.3614101410 -0.5773800611
H  1.2760601044 2.5467300415 -0.1689900160
H  2.2920601368 2.6858303547 -1.6173101664
H  3.8797101974 4.0887103081 -0.4673500359
H  2.3723900318 4.6049203873 0.3199300468
H  4.3130002022 1.3804200888 1.7983801365
H  2.5731604099 1.5983500481 2.0852601528
