20

C  1.0953000784 0.0285100006 0.1782100052
C  2.6054601669 -0.0302500017 -0.0476300046
C  2.9171802998 -0.7430000901 -1.3628200293
C  3.1785104275 1.3855401278 -0.0792800039
C  3.2133502960 2.1666302681 1.2558001280
N  4.5320701599 2.7118201256 0.8574400544
C  4.7174205780 1.5293601751 -0.0167900007
H  0.8609700203 0.5105900168 1.1328301430
H  0.6641100645 -0.9778300524 0.1957800239
H  0.5964900255 0.6001600027 -0.6118900180
H  3.0576002598 -0.6018400192 0.7730200887
H  2.4949603081 -0.2037300169 -2.2176699638
H  2.5072002411 -1.7579801083 -1.3631200790
H  3.9981002808 -0.8176800609 -1.5208101273
H  2.7434103489 1.9853601456 -0.8932400942
H  3.2588303089 1.5464800596 2.1592900753
H  2.4278600216 2.9168002605 1.3856900930
H  4.4589304924 3.5852901936 0.3338700235
H  5.2118802071 1.7382601500 -0.9699700475
H  5.2446703911 0.7056300640 0.4792500436
