18

C  -1.2526601553 -0.7667400241 -0.5121800303
C  -1.2548100948 0.7660100460 -0.5067600608
C  -0.0012200001 1.0991201401 0.3071000278
C  1.2572300434 0.7692601085 -0.4987800121
C  1.2596302032 -0.7642200589 -0.5027300715
C  0.0014800002 -1.1017600298 0.3001900315
N  0.0184800010 -0.0039000001 1.2852600813
H  -1.2166301012 -1.1715900898 -1.5283701420
H  -2.1563901901 -1.1445000172 -0.0201800000
H  -2.1594102383 1.1378501654 -0.0114600006
H  -1.2211300135 1.1782101393 -1.5203201771
H  -0.0012400001 2.1019802094 0.7391000390
H  2.1587400436 1.1444901228 -0.0000600000
H  1.2277101278 1.1799200773 -1.5132601261
H  2.1616003513 -1.1390600204 -0.0049000005
H  1.2322601080 -1.1697900295 -1.5190000534
H  0.0035800003 -2.1072902679 0.7266100645
H  -0.8440700769 -0.0069800005 1.8301801682
