15

C  2.3593101501 -1.2251900434 0.8325400352
N  2.1139001846 0.0450000055 0.1697300076
O  0.8292000890 0.5393100381 0.4497600496
C  3.0788004398 1.0411500931 0.0723800063
N  2.7279701233 2.2962703705 0.1378300041
C  4.5243301392 0.7168200612 -0.1471400112
C  5.4707903862 1.6641601324 -0.1581800133
H  3.1519002914 -1.7850201130 0.3276400268
H  1.4587700367 -1.8483501673 0.8084700704
H  2.6425201893 -1.0677801371 1.8780301809
H  0.4512800276 0.6527000666 -0.4443700314
H  1.7195601463 2.2836301327 0.3307900429
H  4.7872505188 -0.3191400170 -0.3098000288
H  5.2239103317 2.7123203278 -0.0075500007
H  6.5121107101 1.4126501083 -0.3246100247
