14

C  1.1132701635 0.0711900070 0.4226200283
C  2.3101701736 0.0862200037 -0.5043400526
N  2.9621803761 -1.0188400745 -0.6953000426
N  2.6021404266 1.3108201027 -1.0886900425
C  3.1337802410 1.2837201357 -2.4607501030
C  4.0239601135 1.6181402206 -1.3139301538
H  0.7183000445 1.0799900293 0.5690300465
H  1.4081201553 -0.3407000303 1.3920401335
H  0.3321600258 -0.5598400235 -0.0108500011
H  2.5390801430 -1.7776601315 -0.1503200084
H  2.7491102219 2.0845100880 -3.0749502182
H  3.2046601772 0.3046000302 -2.9149003029
H  4.7242107391 0.8756300807 -0.9565500617
H  4.2628006935 2.6540603638 -1.1240299940
