17

C  2.4699802399 -0.4282500148 -1.5797200203
C  2.5070900917 0.1387600005 -0.1695100218
C  3.4690401554 1.3192101717 -0.0161900017
O  3.4952402115 1.7015601397 1.3770800829
C  3.1417603493 3.0915901661 1.4873402119
C  2.8784401417 3.5515801907 0.1056200042
C  3.0610401630 2.5482001305 -0.7494700551
H  1.8185100555 -1.3071100712 -1.6142101288
H  3.4691002369 -0.7348600626 -1.9050801992
H  2.0820901394 0.3021700084 -2.2960100174
H  2.8038802147 -0.6546900272 0.5290900469
H  1.4946501255 0.4329000115 0.1359200180
H  4.4853000641 1.0236700773 -0.2983800173
H  3.9753601551 3.6320700645 1.9448500872
H  2.2558703423 3.1801700592 2.1224901676
H  2.5877301693 4.5573801994 -0.1555900127
H  2.9489202499 2.6137204170 -1.8209701777
