15

C  -1.6133501530 0.8640200496 0.4920300245
C  -1.1206600666 -0.3585000336 -0.2362700105
C  -0.2150800079 -1.3628301620 0.3833200336
O  1.0442700386 -1.2500799894 -0.2717300057
C  1.6765900850 -0.0094700009 0.0462200046
O  0.8262500763 1.1386901140 0.1303400099
C  -0.4685900211 0.9713200331 -0.4764800370
H  -2.5651402473 1.2846301794 0.1919400096
H  -1.3982400894 0.9647700787 1.5491601229
H  -1.7116101980 -0.7695800662 -1.0441700220
H  -0.0970800072 -1.2247700691 1.4646100998
H  -0.5984200835 -2.3734602928 0.2139200121
H  2.1918702126 -0.1171300113 1.0065600872
H  2.4344201088 0.1840200275 -0.7183700800
H  -0.6471300721 1.4582400322 -1.4287301302
