16

C  0.8935900331 0.0469500013 -0.3503500223
C  1.9249601364 0.2762200236 0.4713100195
C  2.9173703194 1.3274400234 0.1430800110
C  2.4300701618 2.7939901352 0.2892300189
C  3.8385500908 3.1303203106 0.8209400773
C  3.9400603771 1.6558201313 1.2636100054
H  0.1649900079 -0.7238700986 -0.1216300055
H  0.7486100197 0.6176600456 -1.2630000114
H  2.0493102074 -0.3125600219 1.3754700422
H  3.4104602337 1.1367301941 -0.8207000494
H  1.6362401247 2.9492802620 1.0295400620
H  2.1496000290 3.2956702709 -0.6409800649
H  4.5531001091 3.4068601131 0.0368200019
H  3.8808403015 3.8727903366 1.6216801405
H  4.9281802177 1.2010601759 1.1531901360
H  3.5839202404 1.4850201607 2.2864701748
