13

O  1.1863001585 0.1034200117 -0.4706000388
N  2.3255300522 -0.0245100018 0.3222200274
C  3.0288600922 1.1681301594 0.3998900354
N  4.2798404694 1.2043300867 0.0288800020
C  4.6135702133 -0.1340200007 -0.4263600409
C  4.5558600426 -1.3137201071 0.5021500587
C  3.3273701668 -0.9421200752 -0.2730200291
H  0.5710100532 -0.5226700306 -0.0485100038
H  2.4524502754 2.0387601852 0.7465000153
H  5.2571506500 -0.2195000201 -1.2910801172
H  5.0869302750 -2.2102203369 0.2062000185
H  4.5811901093 -1.1206600666 1.5674500465
H  2.9978404045 -1.5489501953 -1.1046900749
