13

N  1.5984600782 -0.8457601070 -0.6455700994
N  2.8183400631 -0.3176600337 -0.1696700156
C  3.2454402447 0.9305100441 -0.6123700142
O  2.6480600834 1.5709800720 -1.4771901369
C  4.5522899628 1.3988200426 0.0002800000
C  4.4958705902 1.4773100615 1.4690800905
C  4.4561405182 1.5462201834 2.6669301987
H  1.7168401480 -1.0233200788 -1.6491601467
H  0.9125500321 -0.0803100020 -0.6295000315
H  3.2666103840 -0.7611900568 0.6309700608
H  4.7893800735 2.3850600719 -0.4139000475
H  5.3438305855 0.7116500735 -0.3185500503
H  4.4203805923 1.6171101332 3.7307002544
