15

O  0.8961700797 0.2355100214 0.2112600058
C  2.3297801018 0.0766100064 0.0215600003
C  3.1920602322 1.0288300514 0.9105900526
C  4.0977602005 -0.1661400050 1.2478200197
C  2.9471402168 -1.1007601023 0.8420800567
C  2.6959300041 0.0842600092 -1.5228700638
O  3.8114702702 -0.0316200033 -2.0303702354
H  0.7572900653 0.2194600105 1.1744501591
H  2.6581702232 1.4396800995 1.7753101587
H  3.6911604404 1.8507301807 0.3889700472
H  4.9785604477 -0.2466000170 0.6008100510
H  4.4186506271 -0.2365600169 2.2902903557
H  3.2507002354 -1.9796402454 0.2657800019
H  2.3277502060 -1.4338701963 1.6829001904
H  1.8199200630 0.2105500102 -2.1817901134
