12

C  3.0279002190 -1.4751300812 1.0615601540
C  2.4515399933 -0.5899600387 0.2405500263
O  3.0011501312 0.4962700605 -0.3775200248
C  4.3845205307 0.7394000888 -0.1460800171
C  4.7441301346 1.9823100567 -0.9195800424
O  5.7855100632 2.1097800732 -1.5603500605
H  2.4416303635 -2.2931501865 1.4709200859
H  4.0709600449 -1.4306700230 1.3511501551
H  1.4028700590 -0.6647500396 -0.0309300032
H  4.9954304695 -0.0930300057 -0.5095600486
H  4.5710506439 0.9401000738 0.9136900902
H  4.0516505241 2.8335902691 -0.8003301024
