15

C  1.0000001192 -0.0232900027 0.1667300016
C  2.5200002193 0.0000000000 0.0000000000
C  2.9163300991 -0.7267800570 -1.2885299921
C  4.4097104073 -0.9111100435 -1.3687500954
O  4.9492106438 -2.0145900249 -1.3929001093
C  3.0020201206 1.3611700535 0.0000000000
C  3.3993003368 2.4830701351 0.0000000000
H  0.6980600357 0.4770900309 1.0939100981
H  0.6278300285 -1.0527100563 0.2060900033
H  0.4972800314 0.4866400361 -0.6635000706
H  2.9610702991 -0.5314900279 0.8533501029
H  2.5974802971 -0.1769300103 -2.1816902161
H  2.4537804127 -1.7202801704 -1.3243801594
H  5.0125503540 0.0103200004 -1.4338601828
H  3.7505302429 3.4898402691 0.0064400006
