17

C  4.1902604103 -0.9690100551 -0.4736000299
C  2.9341402054 -0.2186800241 -0.0449900031
O  2.5096502304 -0.7335100770 1.2137901783
C  3.0583703518 1.2729401588 0.1056400016
C  4.1602902412 2.0123500824 -0.0853400081
C  4.1869902611 3.4448602200 0.0864800140
C  5.2967004776 4.1716303825 -0.0917300060
H  4.5327100754 -0.6468000412 -1.4620201588
H  3.9946501255 -2.0461301804 -0.5100600123
H  5.0045399666 -0.8285300732 0.2464600205
H  2.1370003223 -0.4292300344 -0.7663500905
H  3.1750302315 -0.4618800282 1.8694301844
H  2.1297600269 1.7651500702 0.3978400230
H  5.0943803787 1.5414801836 -0.3813600242
H  3.2657203674 3.9461901188 0.3745000362
H  6.2427105904 3.7219102383 -0.3777200282
H  5.2808704376 5.2467403412 0.0482100025
