16

C  1.2152401209 -0.1376200169 0.2041600198
C  2.6868302822 -0.0731200054 -0.0164900012
N  3.2551302910 -0.5203800201 -1.2818001509
C  3.2803802490 0.9186500907 -0.9924600720
C  4.5741500854 1.5979101658 -0.6550200582
C  5.0337905884 2.1804699898 -1.8937600851
C  5.4126305580 2.6606101990 -2.9147500992
H  0.9227700830 0.5711399913 0.9854600430
H  0.9253001213 -1.1415600777 0.5307300091
H  0.6471800804 0.1035600081 -0.7008800507
H  3.2500102520 -0.3335300386 0.8722500801
H  2.5329101086 -0.7289900780 -1.9733902216
H  2.5896000862 1.5494700670 -1.5434801579
H  5.3095908165 0.8957300782 -0.2475200146
H  4.3957605362 2.3717901707 0.0987700075
H  5.7544703484 3.0838801861 -3.8309602737
