19

C  0.9002301097 -0.3020900190 0.5490199924
C  1.8434201479 -0.6586700678 -0.6068500280
C  1.1344001293 -1.5645501614 -1.6237401962
O  0.6824300885 -2.7634501457 -1.0026800632
C  2.3720400333 0.6323700547 -1.2585400343
C  3.4143702984 0.3825700283 -2.3123703003
C  3.2878503799 0.7546600699 -3.5924301147
H  1.4062100649 0.3380200267 1.2795701027
H  0.5622200370 -1.1993900537 1.0771701336
H  0.0153500019 0.2321300209 0.1865000129
H  2.6851203442 -1.2159900665 -0.1736500263
H  1.7996602058 -1.8506600857 -2.4440701008
H  0.2632300258 -1.0616800785 -2.0561301708
H  1.4667301178 -3.2262103558 -0.6615600586
H  2.8286499977 1.2662200928 -0.4877900481
H  1.5338501930 1.2058101892 -1.6745001078
H  4.3273901939 -0.1188300103 -1.9964600801
H  2.4017300606 1.2670800686 -3.9550702572
H  4.0779004097 0.5555600524 -4.3103804588
