15

C  2.5838000774 -0.3465300202 1.5512501001
C  2.6094703674 0.0555100031 0.0843200088
C  3.0813801289 1.4557300806 -0.1029400006
C  4.1797704697 1.8910300732 -0.6921500564
O  4.2947702408 3.2586402893 -0.7043200731
C  3.0787203312 3.6344203949 -0.0225900020
O  2.2843403816 2.4917201996 0.3617200255
H  2.2438402176 -1.3822801113 1.6526402235
H  1.9024401903 0.2889500260 2.1270401478
H  3.5804302692 -0.2722299993 1.9996000528
H  1.6048700809 -0.0477700047 -0.3415600359
H  3.2579901218 -0.6381300092 -0.4641300440
H  4.9794206619 1.3410902023 -1.1553100348
H  2.4837303162 4.2706804276 -0.6870300770
H  3.3394901752 4.2021503448 0.8774900436
