14

O  0.8882700801 -0.1794900149 0.0117200008
C  2.1151201725 -0.0868400112 -0.0030500004
C  2.8080801964 1.2578800917 -0.0559500046
C  4.3348903656 1.2412000895 -0.0343300030
C  4.9665203094 -0.1112500131 -0.0146800010
C  4.2526202202 -1.2363301516 0.0097800000
N  2.8917703629 -1.2105301619 0.0184100010
H  2.4435203075 1.8467001915 0.7940700650
H  2.4666202068 1.7625000477 -0.9675500989
H  4.6863307953 1.8014100790 0.8413500786
H  4.7090005875 1.7881500721 -0.9090400338
H  6.0518608093 -0.1621199995 -0.0175000001
H  4.7193803787 -2.2173500061 0.0277800020
H  2.3745300770 -2.0817601681 0.0448700041
