10

O  1.0091000795 -0.0184900016 -0.2494400144
C  2.2242801189 -0.0439500026 -0.0753300041
O  2.9223504066 -1.2111001015 0.0240900014
N  4.3275103569 -1.2022501230 0.2230700254
C  4.9075703621 -0.0557700060 0.3066700101
C  4.2650203705 1.2479801178 0.2174800187
C  2.9506602287 1.2215600014 0.0300900023
H  5.9990906715 -0.0315600000 0.4610800445
H  4.8503503799 2.1516702175 0.3023300171
H  2.3590500355 2.1242899895 -0.0528600067
