17

C  0.9716700912 0.0016600002 0.0546900034
C  2.4927501678 0.0096600009 -0.0776400045
C  3.0416102409 -1.3167600632 -0.6214800477
O  2.6902801991 -1.4991102219 -2.0011401176
C  3.2071404457 -0.4114100337 -2.7793903351
C  2.6510303020 0.9205200672 -2.2795801163
O  2.9344601631 1.1141901016 -0.8868901134
H  0.6106800437 0.9854701161 0.3733400404
H  0.6500500441 -0.7433900833 0.7902100682
H  0.4746400416 -0.2297700197 -0.8931300640
H  2.9116003513 0.1740100235 0.9214900732
H  2.6460599899 -2.1660699844 -0.0548900031
H  4.1353201866 -1.3403401375 -0.5410200357
H  4.3010606766 -0.4256200492 -2.7169504166
H  2.9225502014 -0.5749100447 -3.8223404884
H  3.1065902710 1.7486500740 -2.8315901756
H  1.5685701370 0.9771701097 -2.4345002174
