17

C  0.9607500434 -0.0146400016 -0.4459500313
C  2.2463202477 -0.0221800003 0.3097100258
C  3.4652402401 0.7461200356 -0.1519700140
C  3.6995704174 1.1983101368 -1.5804901123
C  3.8423304558 -0.0741900057 -2.3757002354
C  3.6909303665 -1.1336899996 -1.5646800995
C  3.4636003971 -0.7788300514 -0.1554400027
H  0.3871200085 0.8820000291 -0.1909100115
H  0.3616700172 -0.8872000575 -0.1671500057
H  1.0882300138 -0.0305000022 -1.5312200785
H  2.0514802933 -0.0272400025 1.3786100149
H  4.0671901703 1.2678600550 0.5789100528
H  4.6191706657 1.7882500887 -1.6484900713
H  2.8622002602 1.8007501364 -1.9453101158
H  4.0204305649 -0.1139700040 -3.4396202564
H  3.7376704216 -2.1631801128 -1.8967801332
H  4.0758304596 -1.2899301052 0.5778300166
