16

C  0.9413200617 0.0291600022 0.2086700201
C  2.4186201096 -0.0492600054 -0.1140400022
N  3.2284302711 0.9591200948 0.6083500385
C  4.1725401878 -0.0365000032 1.1636300087
C  5.5363602638 0.0290000010 0.5065700412
C  3.2259702682 -1.1203900576 0.6299200654
O  3.1551101208 -2.3258302212 0.7414200306
H  0.4111500382 -0.8239300847 -0.2265300155
H  0.5005800128 0.9405100942 -0.2089600116
H  0.7534000278 0.0235600006 1.2880700827
H  2.6128802299 -0.0596900024 -1.1934001446
H  2.7122602463 1.4658501148 1.3299500942
H  4.2291202545 -0.0219600014 2.2572002411
H  5.4695901871 0.0137500009 -0.5873200893
H  6.1499505043 -0.8244900703 0.8139600754
H  6.0664801598 0.9416100383 0.8001100421
