17

C  0.8793500662 -0.2530500293 0.0443000011
C  2.3948800564 -0.1020700037 0.0100900000
C  3.0065703392 -0.9095301032 -1.1275501251
C  2.7430400848 1.3545901775 -0.1750200093
N  3.4427702427 1.9840601683 0.7119500637
N  3.6403102875 3.3068902493 0.3306700289
C  4.3461303711 3.9309203625 1.2122101784
H  0.4490700364 0.3377000391 0.8604500294
H  0.5947900414 -1.2993400097 0.1959000230
H  0.4208500385 0.0939600021 -0.8884800673
H  2.8130002022 -0.4479600489 0.9627800584
H  2.6215801239 -0.5857700706 -2.1009802818
H  2.7872302532 -1.9758201838 -1.0111500025
H  4.0949101448 -0.7869700789 -1.1484701633
H  2.3791100979 1.8513500690 -1.0936200619
H  4.5952405930 4.9925303459 1.0632101297
H  4.7251400948 3.4511301517 2.1307501793
