11

O  0.8868400455 0.0003200000 0.1168400124
S  2.3226101398 0.0005000000 0.2992800176
O  2.9234802723 -0.0001600000 1.6165801287
C  3.0312502384 1.2612600327 -0.6628100276
C  3.7594101429 0.7222900391 -1.6515800953
C  3.7583203316 -0.7246000767 -1.6506501436
C  3.0304601192 -1.2627100945 -0.6626400352
H  2.8724503517 2.3034501076 -0.4466500282
H  4.3035402298 1.2957100868 -2.3903203011
H  4.3015804291 -1.2989701033 -2.3885800838
H  2.8707001209 -2.3040399551 -0.4459900260
