14

C  2.8037202358 0.7937800884 2.0539901257
N  3.6879103184 1.5710000992 1.5266200304
O  3.9040703773 1.1721700430 0.2003300041
C  4.9588804245 1.9596201181 -0.3612700105
C  4.5106105804 3.3880503178 -0.6169200540
C  3.4191403389 3.3928704262 -1.6482200623
O  3.5040903091 3.9980101585 -2.7124302387
H  2.4917201996 0.9459000826 3.0994203091
H  2.3292100430 -0.0369000025 1.5047101974
H  5.2543907166 1.4775000811 -1.2994700670
H  5.8266105652 1.9370101690 0.3082400262
H  5.3488602638 3.9885702133 -0.9849100709
H  4.1121902466 3.8607702255 0.2860500216
H  2.5007803440 2.8403701782 -1.3845801353
