14

C  0.9621400833 0.0435600057 -0.0036600004
C  2.4452202320 0.0334600024 -0.0000500000
C  3.2850501537 1.0839201212 -0.0011400002
C  4.6452403069 0.6061800122 0.0036000002
C  4.6468801498 -0.7349500656 0.0077600004
C  3.2345504761 -1.2467800379 0.0059300005
H  0.5681500435 1.0647001266 -0.0037100003
H  0.5754300356 -0.4677300453 0.8832100630
H  0.5798400044 -0.4663000107 -0.8932800889
H  3.0105001926 2.1276903152 -0.0050700004
H  5.5127305984 1.2471101284 0.0037100003
H  5.5247902870 -1.3626300097 0.0118400017
H  3.0365002155 -1.8441200256 -0.8887800574
H  3.0321803093 -1.8383501768 0.9034900665
