12

C  0.3094700277 1.3501901627 0.1643500179
C  1.3484201431 0.2804800272 -0.1547700018
O  0.9683100581 -0.9949900508 0.3874300420
C  -0.3686800301 -1.2388800383 0.1916300207
C  -1.2598500252 -0.3187900484 -0.1946300119
O  -0.9748000503 1.0109200478 -0.3842400312
H  0.6103100777 2.3138303757 -0.2583400309
H  0.1944700032 1.4732201099 1.2484201193
H  2.3191201687 0.5503800511 0.2727400362
H  1.4721900225 0.1659600139 -1.2388701439
H  -0.6147500873 -2.2734303474 0.3875500262
H  -2.3005800247 -0.5326600671 -0.3954900503
