17

N  1.9137401581 -0.0725900009 -1.3160001040
C  2.2686703205 0.1509699970 0.0892800018
C  3.4904003143 1.0804201365 0.2054700106
N  3.3386301994 2.3487501144 -0.5658000708
C  2.8646001816 3.0232203007 0.6625900269
C  3.6007604599 1.9415501356 1.4925800562
O  4.9421501160 2.2749300003 1.9241901636
H  1.1533900499 -0.7502300739 -1.3647301197
H  2.7040801048 -0.5040000081 -1.7962300777
H  2.4879601002 -0.8067100048 0.5736899972
H  1.3978900909 0.5808200240 0.5967299938
H  4.4115705490 0.5434400439 -0.0536300056
H  2.6346399784 2.2558202744 -1.3050500154
H  3.2324602604 4.0461702347 0.7839300632
H  1.7755200863 3.0242803097 0.7844100595
H  3.0265502930 1.5673501492 2.3467202187
H  5.3579802513 2.6248402596 1.1128600836
