17

C  1.1771001816 -0.6306500435 0.6014300585
N  2.1866302490 -0.3936100304 -0.4367700219
C  2.7266001701 -1.6780000925 -0.8922600746
C  1.5953501463 0.3825300336 -1.5455801487
C  2.6403901577 0.9428700805 -2.5188202858
C  1.9895501137 1.7641100883 -3.5468003750
N  1.4692300558 2.4055700302 -4.3628706932
H  0.8062200546 0.3193000257 1.0023100376
H  1.6134001017 -1.1747900248 1.4466701746
H  0.3231300414 -1.2045400143 0.2235300243
H  3.1328501701 -2.2455301285 -0.0470400043
H  3.5600602627 -1.5335501432 -1.5863701105
H  1.9660001993 -2.2946300507 -1.3846700191
H  1.0484300852 1.2378900051 -1.1243700981
H  0.8531700373 -0.2201200128 -2.0872802734
H  3.1900403500 0.1336600035 -3.0107002258
H  3.3721902370 1.5497601032 -1.9727901220
