15

C  1.0618201494 -0.1350800097 -0.2136300206
O  2.4805402756 -0.0623500049 -0.1986300200
C  3.0615003109 1.1682699919 0.0000000000
C  2.4145801067 2.3297603130 0.1869300157
C  4.4675002098 1.1682699919 0.0000000000
C  5.6576604843 1.1682699919 0.0000000000
C  7.1016607285 1.1682699919 0.0000000000
H  0.7797000408 -1.1786701679 -0.3822900057
H  0.6463700533 0.4616200328 -1.0325000286
H  0.6422100067 0.1747200191 0.7493400574
H  1.3358700275 2.4111902714 0.1998700052
H  2.9660801888 3.2539703846 0.3358800411
H  7.4956603050 2.1891403198 -0.0116100013
H  7.4957003593 0.6477900147 -0.8782900572
H  7.4957003593 0.6679000854 0.8899000883
