15

C  0.9129300714 0.0835800022 -0.0085600009
C  2.3939201832 0.0516700037 -0.0024400002
C  3.2602601051 1.1231100559 0.0068900003
N  4.5179200172 0.6002400517 0.0093300007
N  4.5401406288 -0.7393800616 0.0022100003
C  3.2461004257 -1.0872900486 -0.0049400004
C  2.8745801449 -2.5237600803 -0.0144200008
H  0.5374300480 1.1119401455 -0.0006200001
H  0.5149800181 -0.4285600185 0.8731700778
H  0.5228500366 -0.4120700359 -0.9031900764
H  3.0947802067 2.1906700134 0.0118600009
H  5.4036703110 1.0946800709 0.0156100010
H  1.7886101007 -2.6583302021 -0.0105000008
H  3.2794902325 -3.0297200680 0.8680000305
H  3.2715902328 -3.0155904293 -0.9083500504
