17

C  0.9200600386 -0.2680500150 0.1838000119
C  2.3973400593 -0.3221900165 -0.2179200202
C  2.6131601334 -1.4627600908 -1.2144501209
N  2.7625300884 0.9901700616 -0.7722700834
C  4.1921105385 1.1458501816 -1.0961199999
C  5.1016602516 1.0878901482 0.0680200085
N  5.8074803352 1.0429600477 0.9879900813
H  0.7427200675 0.5123300552 0.9323900342
H  0.6021900177 -1.2209200859 0.6211600304
H  0.2758800089 -0.0631799996 -0.6790800691
H  2.9771001339 -0.5256900191 0.6902800202
H  2.1050002575 -1.2656601667 -2.1648702621
H  2.2201001644 -2.4042003155 -0.8148100376
H  3.6759901047 -1.6220601797 -1.4213900566
H  2.5028302670 1.7178601027 -0.1040400118
H  4.3082199097 2.1275401115 -1.5708301067
H  4.4980802536 0.4190800190 -1.8555201292
