11

N  0.9730700850 0.0011400002 0.0376000032
C  2.4316401482 0.0131900003 -0.0077000004
C  3.0011403561 1.4346901178 -0.0079000005
O  4.4246501923 1.3964301348 -0.0280200019
H  0.6440600753 -0.9630600810 -0.0042300005
H  0.6033599973 0.4582800567 -0.7962800264
H  2.7809002399 -0.5222400427 -0.8980700970
H  2.8255603313 -0.5368100405 0.8545100689
H  2.6820802689 1.9930201769 0.8786900640
H  2.6681702137 1.9835201502 -0.8947800398
H  4.7119207382 1.0290100574 0.8258100748
