13

N  1.2244200706 -0.1651700139 -0.6837300062
C  2.3024201393 0.1339400113 -0.0352400057
N  2.8838102818 1.3622500896 0.0962900072
O  4.0630102158 1.4177100658 0.8612300754
C  4.4340500832 2.8254601955 0.8176000714
C  3.3934104443 3.5084903240 -0.0071500009
C  2.5213403702 2.5802900791 -0.3914200366
H  1.0472600460 -1.1711300611 -0.5946300626
H  2.8595001698 -0.6594300866 0.4937300384
H  5.4265303612 2.9085502625 0.3655800223
H  4.4551501274 3.2103102207 1.8411600590
H  3.3606703281 4.5587801933 -0.2434900105
H  1.6320401430 2.6782901287 -0.9968901277
