15

N  1.2243500948 0.2045500129 0.2578600049
C  2.6594102383 0.1153600067 -0.0967400074
C  2.8945901394 -0.0310300011 -1.5773200989
C  1.9912202358 0.0249800012 -2.5668303967
C  3.4227104187 1.3724800348 0.4105500281
N  2.6324601173 2.3594503403 0.9383400679
O  4.6422004700 1.5046401024 0.3559800088
H  1.1640900373 0.1835900098 1.2763900757
H  0.7822500467 -0.6599900723 -0.0546200052
H  3.0836403370 -0.7512800694 0.4232200384
H  3.9376201630 -0.1954900175 -1.8530501127
H  0.9377601147 0.2054400146 -2.3788201809
H  2.2980501652 -0.0931900069 -3.6019203663
H  1.6476100683 2.3299303055 0.6942300200
H  3.0682601929 3.2471101284 1.1427201033
