11

C  2.3113000393 0.0987500101 0.4926700294
O  1.2608900070 0.7885200381 -0.2504100204
C  2.1456902027 1.7187200785 -0.6533000469
C  2.2009100914 3.0763902664 -0.6047200561
O  3.3450803757 3.4097802639 0.0977700129
C  3.8965101242 2.2339901924 0.5706300735
C  3.1896502972 1.1883701086 0.0590500049
H  2.5185101032 -0.8841400743 0.0591600053
H  2.1173400879 0.0176000018 1.5653902292
H  1.5265601873 3.8937602043 -0.8123500943
H  4.6629099846 2.3566901684 1.3227100372
