13

C  2.9014201164 -1.1151700020 0.5107800364
N  2.3347702026 0.1234700084 0.0246000029
C  3.0749702454 1.2452201843 0.0141300010
C  2.6279802322 2.5227401257 -0.2109000087
O  3.7032804489 3.3583002090 -0.1354700178
C  4.7400107384 2.5153400898 0.1310500056
N  4.4197201729 1.2450200319 0.2332900167
H  2.1847400665 -1.9288501740 0.3608400226
H  3.1205000877 -1.0507800579 1.5817101002
H  3.8172402382 -1.3767400980 -0.0293500032
H  1.3238700628 0.1833200157 0.0756400079
H  1.6738802195 2.9784500599 -0.4241400361
H  5.7159104347 2.9675302505 0.2325900197
