13

C  0.9715200663 0.1948400140 0.0094000008
C  2.4332802296 -0.0614100061 -0.0010000000
N  3.3535902500 0.8795600533 -0.0086200004
N  4.6318902969 0.3585700095 -0.0171500016
C  4.6327700615 -0.9576200843 -0.0154400012
C  5.8575506210 -1.7963801622 -0.0236400012
S  3.0647101402 -1.6578301191 -0.0032100002
H  0.3832800388 -0.7283400893 -0.0015700002
H  0.6885400414 0.7863700390 -0.8676200509
H  0.6967300773 0.7607600689 0.9057000875
H  5.6325302124 -2.8672003746 -0.0102500012
H  6.4725503922 -1.5687100887 0.8526200652
H  6.4489803314 -1.5856001377 -0.9201900959
