19

C  2.3091101646 -0.4379700124 -1.4445201159
C  2.4963603020 0.0261000022 -0.0016400001
N  3.2263901234 -0.9940300584 0.7546700239
C  3.2649602890 1.3417400122 0.0295800027
C  2.5269403458 2.6004099846 -0.4822700322
N  3.1547803879 3.3708903790 0.6167801023
C  3.2918901443 2.1027002335 1.3758001328
H  1.7338200808 0.2966800332 -2.0189502239
H  1.7674001455 -1.3894801140 -1.4860900640
H  3.2710204124 -0.5706300735 -1.9537801743
H  1.5100201368 0.1538300067 0.4590600431
H  4.1044301987 -1.2129100561 0.2846699953
H  2.6918001175 -1.8627201319 0.7555200458
H  4.2700200081 1.2500600815 -0.4119700193
H  1.4333500862 2.5624201298 -0.4114000201
H  2.8004300594 2.9323003292 -1.4881501198
H  4.0562801361 3.7738902569 0.3588100374
H  4.2175903320 2.0125002861 1.9518001080
H  2.4434602261 1.9064301252 2.0423502922
