12

C  1.0069900751 0.1362300068 -0.6141400337
C  2.2637300491 -0.1168100014 -0.2424700111
O  3.2150602341 0.8708300591 -0.2241200209
C  4.5390605927 0.6320100427 0.1444200128
C  5.3893203735 1.6683301926 0.1421800107
C  5.0046405792 -0.6676200628 0.5148300529
N  5.3834104538 -1.7237800360 0.8163900971
H  0.2608000338 -0.6508100629 -0.6251700521
H  0.7010600567 1.1329901218 -0.9140900970
H  2.5747201443 -1.1070100069 0.0581500046
H  5.0495100021 2.6602602005 -0.1380800158
H  6.4339504242 1.5560501814 0.4161100090
