14

C  1.0795600414 -0.0135800019 0.0105200009
C  2.5696201324 0.0058300006 0.0322400033
N  3.2982001305 -1.0676101446 0.0498400033
N  4.5818305016 -0.6384200454 0.1265800148
C  4.7129406929 0.7593200803 -0.2663600147
C  3.3333003521 1.2927601337 0.0651200041
H  0.7117400765 -1.0392301083 -0.0738900080
H  0.7211000323 0.5685500503 -0.8420500755
H  0.6993700266 0.4311600327 0.9340600967
H  5.2313604355 -1.2577099800 -0.3597100079
H  4.9064903259 0.8346601129 -1.3422101736
H  5.5077004433 1.2761901617 0.2778100371
H  2.9605102539 2.0005402565 -0.6783900857
H  3.2749702930 1.7188601494 1.0711300373
