17

C  2.3651502132 3.4163701534 -0.4358600378
C  2.8146901131 2.1798200607 -0.6804000735
C  3.2364301682 1.2089400291 0.3876900375
C  4.7066001892 0.8568201065 0.1993200183
C  5.7523803711 1.9052702188 0.6127000451
C  6.3280200958 0.7888400555 1.4768600464
O  5.1626801491 -0.0404600017 1.2524001598
H  2.0615401268 4.0679502487 -1.2497801781
H  2.2852702141 3.8058502674 0.5755400658
H  2.8642301559 1.8309501410 -1.7105600834
H  2.6224801540 0.3050600290 0.2993200123
H  3.0611002445 1.6198600531 1.3896301985
H  4.9094805717 0.3997900188 -0.7786000371
H  5.3685503006 2.7576801777 1.1806100607
H  6.4046001434 2.2559802532 -0.1906900257
H  7.2334308624 0.3120599985 1.0899001360
H  6.4561004639 1.0340200663 2.5344700813
