16

N  2.5170500278 -0.3546700478 1.5487000942
C  2.5672502518 0.0122400010 0.1421400160
C  2.9788601398 1.4265100956 -0.0340500027
C  4.0185503960 1.8939900398 -0.7191000581
O  4.1765003204 3.2607502937 -0.7444900274
C  3.0273303986 3.7598102093 -0.0302000027
C  2.2470600605 2.5780501366 0.5443900824
H  2.3190803528 -1.3508100510 1.6237701178
H  1.7347301245 0.1200200096 1.9933601618
H  1.5841500759 -0.1471200138 -0.3144800365
H  3.2705202103 -0.6542800665 -0.3704100251
H  4.7730302811 1.3429200649 -1.2571700811
H  2.4124302864 4.3371105194 -0.7302400470
H  3.3701701164 4.4372305870 0.7596400976
H  1.1987800598 2.6086301804 0.2328200191
H  2.2867300510 2.5805401802 1.6381400824
