15

C  0.9938800335 0.0642400011 -0.1307200044
C  2.4906101227 -0.0492200032 -0.0341700017
N  3.1573600769 -1.1641001701 -0.0040400005
O  2.3001501560 -2.2701702118 -0.0426400043
C  3.2867703438 1.2033301592 -0.0016700001
C  2.8535802364 2.4323601723 0.7596300244
N  3.8373601437 1.5306401253 1.3271901608
H  0.6912400126 1.0824201107 -0.3867300451
H  0.5504800677 -0.2107200176 0.8301200867
H  0.6148400307 -0.6062100530 -0.9070900679
H  2.9215700626 -3.0153403282 0.0569200031
H  3.9626703262 1.3398400545 -0.8390100598
H  1.8908700943 2.4444901943 1.2547500134
H  3.2119600773 3.3990802765 0.4279500246
H  4.7907900810 1.8810701370 1.2268902063
