18

C  1.0191000700 0.0221500006 -0.0551200025
C  2.5070402622 -0.0598900057 -0.0511900038
C  3.2301502228 -0.7588100433 -1.1650800705
C  3.3179101944 0.7481300235 -1.0442800522
C  4.5927100182 1.4727401733 -0.6305300593
C  5.9719104767 1.0524400473 -1.0822800398
N  5.3257002831 2.2176001072 -1.6601201296
H  0.6887200475 0.8823500872 0.5358100533
H  0.5912000537 -0.8816800714 0.3901400566
H  0.6135600805 0.1278800070 -1.0666000843
H  2.8989303112 -0.1770500094 0.9527900815
H  2.6573700905 -1.1599701643 -1.9934101105
H  4.1008806229 -1.3498800993 -0.9080700874
H  2.7353403568 1.3019800186 -1.7823600769
H  4.5348405838 1.9799400568 0.3314400315
H  6.0643801689 0.1922600120 -1.7332401276
H  6.8100004196 1.2315100431 -0.4215600193
H  5.7051706314 3.0826704502 -1.2711200714
