15

C  2.0839002132 -0.1425800174 -0.0725100040
C  0.8287400603 -0.9135200977 0.2120000273
C  -0.4013200402 -1.3929201365 -0.4642800391
C  -1.5448402166 -0.4376900196 -0.0984700099
N  -1.4060500860 0.7495700121 0.4416400194
N  -0.1330700070 1.1745200157 0.7747300863
C  0.8122300506 0.5839900374 -0.1622600257
H  2.6155202389 -0.3722400367 -0.9889401197
H  2.7405200005 0.0891900063 0.7585900426
H  0.7608800530 -1.1995301247 1.2638101578
H  -0.6735700369 -2.3955101967 -0.1190300062
H  -0.3021500111 -1.4271701574 -1.5544301271
H  -2.5620901585 -0.7672400475 -0.3658700287
H  -0.0956600085 2.1959002018 0.7956100106
H  0.6233100295 0.9050601125 -1.1897799969
