13

C  2.8535404205 -1.1804600954 0.3546300232
C  2.2904503345 0.0098900013 0.1199300140
C  3.0562303066 1.2648100853 0.0181700010
N  2.5185303688 2.4239900112 -0.2093100101
N  3.5555200577 3.4047501087 -0.2418700159
C  4.6794600487 2.8036201000 -0.0331100039
C  4.5403800011 1.3397600651 0.1662000120
H  2.2329900265 -2.0699901581 0.4183900356
H  3.9206602573 -1.3169200420 0.4889100492
H  1.2165400982 0.1072600111 -0.0093800006
H  5.6569905281 3.3016502857 -0.0012800001
H  5.0655102730 0.7916300893 -0.6172100306
H  4.8747200966 1.0525200367 1.1639600992
