12

O  1.9671401978 -1.2215600014 0.0573600046
C  1.7922000885 -0.0144900009 -0.0750200003
C  2.8754701614 1.0400800705 0.0413300022
C  4.2522301674 0.4482200444 -0.0111500006
C  5.0255203247 0.2509600222 1.0684601068
C  6.3278508186 -0.3137300313 0.9760800600
N  7.3964505196 -0.7583300471 0.9054200649
H  0.7777000666 0.3840300143 -0.2484300137
H  2.7051901817 1.5945701599 0.9701800942
H  2.7559404373 1.7409301996 -0.7916200757
H  4.6163902283 0.1591500193 -0.9969500899
H  4.6767506599 0.5082000494 2.0626101494
