12

O  0.7231600881 1.0333501101 0.3109800220
N  2.0104601383 0.4866400361 0.2519600093
C  2.8687801361 1.4494800568 0.1660000086
C  4.3154401779 1.1767501831 0.0879300088
C  5.1667900085 2.2031700611 0.0012300002
C  6.6152706146 1.9411902428 -0.0768800080
O  7.4198708534 2.8613803387 -0.1567200124
H  0.1599500030 0.2388600111 0.3736900389
H  2.5569503307 2.5096101761 0.1476800144
H  4.6172204018 0.1360800117 0.1056700051
H  4.8653802872 3.2438201904 -0.0163800009
H  6.9288706779 0.8843700290 -0.0595500022
