9

C  0.9917600751 -0.0034000003 -0.0058800005
C  2.4908800125 -0.0553600043 0.0016700001
O  3.1280801296 -1.1012800932 0.0064700008
C  3.1899402142 1.2107499838 0.0004000000
C  3.7772502899 2.2596802711 -0.0005400000
H  0.6296700239 1.0286101103 0.0072000003
H  0.6101400256 -0.5187000632 0.8796200752
H  0.6199100614 -0.4937200248 -0.9094800353
H  4.3067803383 3.1840102673 -0.0008800001
