17

C  1.0000001192 0.0000000000 0.0000000000
C  2.4440002441 0.0000000000 0.0000000000
C  3.6341602802 0.0000000000 0.0000000000
C  5.0685200691 0.0045600007 0.0513400026
C  5.8372707367 -0.7275300622 -1.0208100080
C  5.8421201706 0.7764500976 -0.9912000895
C  7.0834002495 1.5120000839 -0.6146300435
H  0.6059700847 1.0208600760 0.0116400011
H  0.6059100032 -0.5205500126 0.8782300949
H  0.6060200334 -0.5003100634 -0.8899601102
H  5.4881401062 -0.0291900039 1.0532901287
H  5.2880201340 -1.2129601240 -1.8191401958
H  6.7342305183 -1.2582701445 -0.7211900949
H  5.2928800583 1.2926300764 -1.7722601891
H  7.6308207512 1.0140800476 0.1912300140
H  6.8340802193 2.5249302387 -0.2808100283
H  7.7502107620 1.5936901569 -1.4785101414
