18

C  0.9077200294 -0.2597000301 0.3978400230
C  2.3563001156 -0.2039900124 -0.0895300135
C  2.6303701401 -1.3791701794 -1.0311100483
C  2.6845400333 1.1203900576 -0.7985200286
C  2.5791301727 2.3437602520 0.1058000103
O  2.9690902233 3.5068502426 -0.6141900420
H  0.7183200717 0.4912500381 1.1706601381
H  0.6828400493 -1.2381401062 0.8357000947
H  0.2053800076 -0.0884600058 -0.4247900248
H  3.0160202980 -0.3099100292 0.7811100483
H  1.9979702234 -1.3289700747 -1.9238801003
H  2.4350001812 -2.3331203461 -0.5302500129
H  3.6762001514 -1.3822101355 -1.3555300236
H  2.0309801102 1.2594500780 -1.6697300673
H  3.7036702633 1.0738500357 -1.2050101757
H  3.2256302834 2.2470901012 0.9836200476
H  1.5527801514 2.5007102489 0.4475600421
H  3.8907003403 3.3806803226 -0.8981100917
