15

C  1.0744299889 -0.1596200168 -0.5279000401
N  2.3517801762 0.1267900169 0.1201500148
C  3.0216002464 -1.0557401180 0.6639900804
C  3.0925102234 1.2472101450 -0.2487700135
N  2.5766801834 2.3505001068 -0.6913100481
C  4.6276302338 1.2887800932 -0.1404900104
O  5.3222303391 0.2921400368 -0.2538100183
H  0.3656100333 0.6610800624 -0.3842800260
H  0.6002800465 -1.0548100471 -0.1115100086
H  1.2206801176 -0.3210200071 -1.6005501747
H  2.3007903099 -1.7298700809 1.1397401094
H  3.7393102646 -0.7784900665 1.4428601265
H  3.5322601795 -1.6107101440 -0.1292300075
H  1.5600301027 2.2742702961 -0.7001600862
H  5.0329604149 2.2999401093 0.0266100019
