15

C  0.9757500887 0.0036300002 0.0123700006
C  2.4875302315 -0.0050800005 -0.0071800007
C  3.1108701229 1.0638000965 0.8714500666
O  4.4316101074 0.5946500301 1.1781001091
C  4.3240404129 -0.8199300766 1.4323301315
C  3.1034002304 -1.2077400684 0.6414500475
O  2.6849904060 -2.3523399830 0.5273200274
H  0.5769500136 -0.8038800955 -0.6111900806
H  0.5863300562 0.9531000853 -0.3691100180
H  0.5847200751 -0.1458800137 1.0251200199
H  2.8793501854 0.0583800077 -1.0279500484
H  2.5679399967 1.2068501711 1.8139500618
H  3.1802704334 2.0291600227 0.3611700237
H  5.2200307846 -1.3203301430 1.0621100664
H  4.1644105911 -0.9868800640 2.4999601841
