16

C  1.0431700945 -0.5069800615 0.5011000633
C  2.3054401875 -0.2709000409 -0.3270000219
C  2.8198401928 -1.5831900835 -0.9118700624
N  1.9971801043 0.6605200171 -1.3997700214
C  2.9056601524 1.4117300510 -2.0815701485
N  4.1302700043 1.6522301435 -1.7907800674
H  0.6700300574 0.4361100197 0.9135600924
H  1.2470700741 -1.1849800348 1.3354400396
H  0.2422800213 -0.9429500699 -0.1052000076
H  3.0657100677 0.1533700079 0.3380900323
H  2.0853302479 -2.0328900814 -1.5895401239
H  3.0369703770 -2.3050701618 -0.1176600084
H  3.7406404018 -1.4241001606 -1.4826500416
H  1.1370501518 0.4594400525 -1.9003701210
H  2.4759101868 1.8570401669 -2.9953103065
H  4.3802103996 1.1936200857 -0.9145400524
