20

C  0.6866800189 0.2177600265 1.1929000616
N  1.9061801434 0.7093100548 1.8260002136
C  2.8097803593 1.3946501017 0.8829700351
C  2.1757102013 2.6436600685 0.2622400224
C  4.1352705956 1.7436201572 1.6001801491
C  4.0060405731 2.7089302540 2.7790801525
O  3.2156102657 2.1524600983 3.8196604252
H  0.1230400130 -0.3814600408 1.9160201550
H  0.9065100551 -0.4200600386 0.3304500282
H  0.0325100012 1.0382200480 0.8824600577
H  2.4024600983 -0.0983200073 2.2136902809
H  3.0631003380 0.7003100514 0.0706300065
H  1.7551201582 3.3088803291 1.0231701136
H  1.3706301451 2.3773500919 -0.4304800332
H  2.9173200130 3.2112002373 -0.3109800220
H  4.8329105377 2.1730000973 0.8696401119
H  4.5910706520 0.8108701110 1.9592001438
H  3.5655503273 3.6630001068 2.4762401581
H  4.9966402054 2.9204602242 3.1936502457
H  2.4225003719 1.7722101212 3.3825502396
