19

C  2.7384099960 -0.7704800367 1.7674901485
C  2.4989101887 -0.1936100125 0.3974300325
C  1.6197102070 -0.7717500925 -0.4404400289
C  3.2792901993 1.0483601093 -0.0162300020
N  2.8613901138 2.1890501976 0.8065400720
C  4.8271703720 0.8712400794 0.0420800038
N  5.3356604576 -0.1890800148 -0.8346100450
H  2.5728502274 -0.0194600001 2.5463800430
H  3.7634303570 -1.1451200247 1.8551400900
H  2.0657601357 -1.6079801321 1.9809901714
H  1.0591500998 -1.6595700979 -0.1606000066
H  1.4387401342 -0.3743400276 -1.4355101585
H  3.0267603397 1.3048701286 -1.0537301302
H  3.1082601547 2.0240600109 1.7785900831
H  1.8456001282 2.2568302155 0.7684800625
H  5.1467804909 0.6635700464 1.0701600313
H  5.3070406914 1.8120601177 -0.2539300323
H  4.8685302734 -1.0661000013 -0.6086500287
H  6.3271002769 -0.3283300102 -0.6505100131
