21

C  2.3731601238 -0.6485800743 0.3298000097
O  3.6973102093 -0.1801000237 0.1155400053
C  3.7684202194 1.2450900078 0.1649300158
C  5.2197504044 1.7211201191 -0.0680700094
C  6.1482305527 1.1491200924 1.0162401199
C  5.7178506851 1.2560600042 -1.4469101429
C  5.2575902939 3.2564802170 -0.0078600002
H  2.3817203045 -1.7405601740 0.2794900239
H  1.7015800476 -0.2682600021 -0.4460800588
H  2.0153801441 -0.3472300172 1.3192000389
H  3.4133503437 1.5872901678 1.1448601484
H  3.1075003147 1.6629902124 -0.6044600606
H  5.8143305779 1.4452400208 2.0170202255
H  7.1745004654 1.5111700296 0.8875900507
H  6.1791405678 0.0544600040 0.9846600294
H  5.0694799423 1.6311900616 -2.2468302250
H  5.7411108017 0.1637200117 -1.5201601982
H  6.7324604988 1.6211200953 -1.6429802179
H  4.6123600006 3.6985104084 -0.7752700448
H  6.2733702660 3.6346004009 -0.1686600149
H  4.9164204597 3.6226301193 0.9669401050
