17

C  1.4143601656 -0.3394800425 -1.2104400396
C  2.3811001778 -0.3579300344 -0.0345700011
C  3.0275301933 1.0021200180 0.2065500170
N  3.8970704079 1.3877601624 -0.8861801028
C  4.2323904037 2.6967003345 -1.0697201490
N  5.1234502792 2.8538701534 -2.0810301304
O  3.8027503490 3.6472301483 -0.4356000423
H  0.9336300492 -1.3166201115 -1.3196800947
H  1.9320601225 -0.1134100035 -2.1479802132
H  0.6303600669 0.4099300504 -1.0614900589
H  3.1520502567 -1.1166901588 -0.2130900174
H  1.8343201876 -0.6565300226 0.8672300577
H  3.6450603008 0.9669700861 1.1112300158
H  2.2630300522 1.7725100517 0.3583000302
H  4.6285104752 0.7390600443 -1.1387701035
H  5.0069403648 2.2424600124 -2.8756802082
H  5.2861804962 3.8256802559 -2.3144502640
