15

C  0.9597800374 -0.0045700003 0.0493200049
C  2.4434602261 0.0456000045 0.0292500034
C  3.2890703678 1.1380301714 -0.0634800047
C  4.6194105148 0.6574100256 -0.0199600011
C  4.5509500504 -0.7138800025 0.0962100103
N  3.2347002029 -1.0695999861 0.1155800074
N  2.7775502205 -2.3974702358 0.1981100142
H  0.5348400474 1.0048201084 0.0521000028
H  0.5980100036 -0.5216800570 0.9441100955
H  0.5790400505 -0.5257500410 -0.8352300525
H  2.9776401520 2.1718001366 -0.1439500153
H  5.5269103050 1.2460800409 -0.0603800043
H  5.3346600533 -1.4541300535 0.1718000025
H  1.9645901918 -2.5415802002 -0.3956200182
H  3.4773402214 -3.0501000881 -0.1451500058
