12

C  0.9935300350 0.0246800017 -0.0077000004
N  2.4287800789 0.0286600031 0.0010000000
C  3.2305903435 1.1180900335 0.0025600002
C  4.4691600800 0.6471599936 0.0081000011
O  4.5559201241 -0.7464800477 0.0093800006
C  3.2113304138 -1.1107500792 0.0039800005
O  2.8189702034 -2.2678201199 0.0017800000
H  0.6014200449 1.0453101397 0.0066800006
H  0.6347100735 -0.5232300758 0.8686000705
H  0.6461100578 -0.4941300154 -0.9059900641
H  2.8698303699 2.1344602108 0.0000500000
H  5.4105205536 1.1669100523 0.0110700009
