16

O  1.1386600733 0.0674400106 0.5049000382
C  2.3052902222 0.0189100020 0.1106200069
C  3.0287501812 -1.3025101423 -0.0195200015
C  3.9988801479 -1.2748301029 -1.1907000542
C  4.8733406067 -0.0251700021 -1.1637400389
N  4.0349302292 1.1691800356 -1.2210900784
C  3.1475203037 1.2751400471 -0.0545600057
H  2.2959401608 -2.1035501957 -0.1609500051
H  3.5635302067 -1.4840301275 0.9190701246
H  4.6296801567 -2.1706500053 -1.1671600342
H  3.4359903336 -1.3055500984 -2.1327202320
H  5.5084404945 -0.0110300006 -0.2698800266
H  5.5384507179 -0.0342200026 -2.0340101719
H  4.6236701012 2.0011901855 -1.2660200596
H  3.7221603394 1.4355701208 0.8636400700
H  2.4752104282 2.1264002323 -0.2008600235
