14

O  0.2214100063 0.6496700048 -0.4001600146
C  1.3595600128 -0.0878500044 0.0723400041
C  2.0068001747 -0.9877400398 -0.9367700815
C  2.6878001690 0.2887900174 -0.5278200507
O  3.8387303352 0.1344600022 0.3248000443
N  3.9778501987 1.3424600363 1.0195701122
C  5.0079302788 1.2535800934 1.7895401716
H  0.1686700135 1.5122901201 0.0481000021
H  1.3537501097 -0.4153600335 1.1068100929
H  1.5720201731 -1.0337100029 -1.9274401665
H  2.4218800068 -1.9238702059 -0.5856100321
H  2.7096800804 1.0885699987 -1.2605901957
H  5.2931003571 2.1056602001 2.4252302647
H  5.6377406120 0.3499000371 1.8511002064
