13

C  2.2332701683 -0.8423100710 -0.2474700212
O  3.4549801350 -0.1187500060 -0.2180300206
C  3.2406201363 1.2581901550 0.0738200098
C  4.5766000748 1.9294401407 0.0758200064
C  4.9018006325 2.9876000881 -0.6782500148
H  2.4573800564 -1.8884001970 -0.4741900563
H  1.5734101534 -0.4501700103 -1.0276800394
H  1.7356101274 -0.7948800325 0.7259900570
H  2.7829103470 1.3583501577 1.0645700693
H  2.5719501972 1.6981301308 -0.6756300926
H  5.3227806091 1.5039601326 0.7416000962
H  4.1933403015 3.4398303032 -1.3653401136
H  5.8975105286 3.4168703556 -0.6285000443
