14

C  0.9532200694 -0.0168600027 0.1230600104
C  2.4525401592 0.0597100034 -0.0875300094
O  2.7456700802 0.1103800088 -1.5099700689
C  3.2033901215 1.0921800137 0.8054200411
N  4.1322302818 0.0117900008 1.1669501066
C  3.2983803749 -0.9757900834 0.7304900289
O  3.3108203411 -2.1564803123 0.9749701023
H  0.6960600615 -0.0767700076 1.1859501600
H  0.5358500481 -0.9005500674 -0.3712800443
H  0.4575100243 0.8669400811 -0.2922800481
H  3.7029101849 -0.0633800030 -1.5686101913
H  2.6564500332 1.4848800898 1.6678900719
H  3.6981403828 1.9064301252 0.2697200477
H  4.6194906235 -0.1438900083 2.0401401520
