15

C  1.3135900497 -0.2792500257 0.4039900303
N  2.5600502491 0.4507700503 0.2188200206
C  2.4979400635 1.6876701117 -0.1216300055
C  1.2318300009 2.4744901657 -0.3522800207
N  3.6555902958 2.4089500904 -0.2994100153
C  4.9295902252 1.9277302027 -0.1462300122
O  5.9197702408 2.6302502155 -0.3141100109
H  1.5419601202 -1.2794700861 0.7852900624
H  0.7816500664 -0.4037400484 -0.5444900393
H  0.6605401039 0.2049500048 1.1370401382
H  0.6048900485 1.9624201059 -1.0872600079
H  1.4436900616 3.4812102318 -0.7235400081
H  0.6829900742 2.5620303154 0.5897400379
H  3.6150403023 3.3835003376 -0.5600000024
H  4.9905405045 0.8653400540 0.1387400031
