20

C  0.9735301137 -0.0013100002 0.0328900032
C  2.5029401779 0.0059500006 -0.0037500004
C  2.9734601974 0.1282700151 -1.4640800953
C  3.0834300518 1.1337401867 0.8502401114
C  4.4692802429 0.6251300573 1.2019801140
N  4.3081502914 -0.8169600368 1.3796300888
C  3.1013402939 -1.2424300909 0.6599000692
H  0.5982300639 -0.0842000097 1.0589799881
H  0.5704800487 -0.8461700678 -0.5363900065
H  0.5654400587 0.9211100936 -0.3951300085
H  4.0647902489 0.1048500091 -1.5523101091
H  2.6239202023 1.0658700466 -1.9109901190
H  2.5800702572 -0.6959600449 -2.0702002048
H  2.4970500469 1.2701901197 1.7684501410
H  3.1182701588 2.0954701900 0.3275100291
H  5.1734805107 0.8271700740 0.3873900473
H  4.8585305214 1.0958701372 2.1093900204
H  5.1292405128 -1.3110300303 1.0341000557
H  3.3382401466 -2.0252802372 -0.0701100081
H  2.4098200798 -1.6782101393 1.3907201290
