18

C  0.9173600674 -0.2088200152 -0.0917700008
C  2.4023902416 -0.1500300020 -0.1239400059
O  2.9808001518 -0.3383200467 -1.4217901230
C  3.1143803596 0.9687600732 -0.8429000974
C  4.5168499947 1.3486901522 -0.4863300323
C  4.5496106148 2.1959500313 0.7881100774
N  5.9084806442 2.6181802750 1.1070600748
H  0.5338300467 0.4393500090 0.7020600438
H  0.5853700638 -1.2311400175 0.1121600121
H  0.4720700085 0.1112000048 -1.0389101505
H  2.8728802204 -0.6263999939 0.7239300609
H  2.5416302681 1.7787801027 -1.2736901045
H  4.9495201111 1.9130201340 -1.3230600357
H  5.1376404762 0.4529700279 -0.3529400229
H  4.1421999931 1.6224001646 1.6280500889
H  3.9174802303 3.0820300579 0.6652100682
H  6.5019407272 1.8004602194 1.2420800924
H  5.9077906609 3.1199202538 1.9943201542
