16

O  0.5569199920 0.1232400090 -0.4530600309
C  1.9202500582 -0.2829400301 -0.4034200311
C  2.7865800858 0.9440400600 -0.1533200145
C  4.2839703560 0.6403600574 -0.1818200052
C  4.7177605629 -0.2857200205 0.9181000590
C  5.3052506447 -1.4719001055 0.7130400538
H  0.0268600024 -0.6804300547 -0.5915500522
H  2.1746101379 -0.7551200390 -1.3581601381
H  2.0274600983 -1.0193001032 0.3993300498
H  2.5059800148 1.3993700743 0.8044300675
H  2.5609900951 1.7012501955 -0.9145100713
H  4.8366303444 1.5814601183 -0.0699599981
H  4.5564904213 0.2341600209 -1.1643701792
H  4.5468707085 0.0491900034 1.9396401644
H  5.5071706772 -1.8455901146 -0.2860200107
H  5.6037802696 -2.0948600769 1.5506601334
