17

O  0.8399000764 -0.1992700100 0.3827600479
C  2.2220301628 0.0991000086 0.1129700094
C  2.8826701641 1.1390900612 1.0465000868
C  4.1690902710 0.2934200168 0.9700100422
C  3.2683901787 -0.9276700616 0.6538200378
C  3.7924103737 -1.8903701305 -0.3462000489
C  4.8821501732 -2.6179702282 -0.0729600117
H  0.6471800804 -0.9885300398 -0.1517000198
H  2.3543303013 0.3531300426 -0.9471200705
H  2.4391200542 1.1883400679 2.0477602482
H  2.9661402702 2.1521899700 0.6444100738
H  4.8412303925 0.5973700285 0.1586500108
H  4.7428207397 0.2311000228 1.8989300728
H  2.9131000042 -1.4426701069 1.5580501556
H  3.2763602734 -2.0110502243 -1.2951600552
H  5.4153304100 -2.5241501331 0.8676900864
H  5.2694807053 -3.3310501575 -0.7966300845
