18

C  3.9315102100 -1.0056400299 -0.7767200470
C  3.0284903049 -0.3254700303 0.2426800132
C  2.8639101982 1.1676801443 -0.0217100028
C  4.1395401955 1.9125502110 0.2589300275
N  4.7657403946 2.5285902023 -0.6887500286
O  5.9130406380 3.1302404404 -0.1509599984
C  6.6036505699 3.7957103252 -1.2018201351
H  3.9672603607 -2.0830702782 -0.5878800750
H  4.9544501305 -0.6216400266 -0.7210000753
H  3.5602502823 -0.8519901037 -1.7944900990
H  3.4326303005 -0.4917000532 1.2486600876
H  2.0409801006 -0.8009300828 0.2086700201
H  2.1006500721 1.5723801851 0.6518400908
H  2.5399200916 1.3502000570 -1.0516901016
H  4.5115604401 1.9039801359 1.2989602089
H  7.4902005196 4.2780504227 -0.7819900513
H  5.9642906189 4.5622205734 -1.6508700848
H  6.9202804565 3.0750701427 -1.9620301723
