10

C  0.9983800650 -0.0049100006 -0.0073700007
C  2.5016901493 0.0344300009 0.0050800005
C  3.2254900932 -1.2847300768 -0.0053200005
O  3.1187903881 1.0988500118 0.0182000026
H  0.6023200154 1.0143100023 0.0005800001
H  0.6380000710 -0.5303300023 0.8806700706
H  0.6521600485 -0.5112200379 -0.9126600623
H  2.5122301579 -2.1138000488 0.0177000016
H  3.8671503067 -1.3521301746 0.8774001002
H  3.8238601685 -1.3618001938 -0.9170401096
