13

O  1.0535600185 0.0058700005 0.3338100314
S  2.4990801811 -0.0003800000 0.2108900100
O  3.3580703735 -0.0057200002 1.3806400299
C  2.9772503376 -1.3527400494 -0.8642400503
C  3.4445402622 -0.6710800529 -2.1133902073
C  3.4504702091 0.6681000590 -2.1116101742
C  2.9892201424 1.3505601883 -0.8606500626
H  2.1080100536 -1.9868201017 -1.0487800837
H  3.7845802307 -1.9178001881 -0.3917100132
H  3.7590703964 -1.2538901567 -2.9712200165
H  3.7701601982 1.2503800392 -2.9678902626
H  3.8015203476 1.9071902037 -0.3866300285
H  2.1256201267 1.9928101301 -1.0435000658
