13

C  0.9150600433 0.0014300001 -0.0960400105
C  2.4031400681 0.0640000030 -0.1921200156
C  3.1512603760 1.0307101011 0.3612300158
C  4.6251707077 1.0102601051 0.2130500227
N  5.2515106201 2.0504601002 0.8243300915
O  5.2422404289 0.1503300071 -0.3962800205
H  0.6116900444 -0.9308601022 0.3899300396
H  0.4753700495 0.0265000034 -1.0977500677
H  0.5022600293 0.8363100886 0.4790500402
H  2.8851301670 -0.7370700240 -0.7516300678
H  2.7032101154 1.8399101496 0.9228500724
H  4.7742800713 2.7774202824 1.3352200985
H  6.2596302032 2.0865001678 0.7550600767
