13

O  0.9288101196 -0.0211000014 -0.0397500023
C  2.1534302235 0.0073200008 -0.0073900004
C  2.9271202087 1.2617300749 -0.0011400002
C  4.2677907944 1.3449900150 0.0336800031
C  4.6745605469 2.7914903164 0.0279200021
C  3.3471202850 3.4923803806 -0.0155500006
C  2.3571901321 2.5880000591 -0.0315899998
H  2.7532701492 -0.9175100327 0.0192400012
H  4.9622902870 0.5192100406 0.0617000051
H  5.2759804726 3.0291903019 -0.8543000221
H  5.2282204628 3.0497403145 0.9352800846
H  3.2186701298 4.5644702911 -0.0312900022
H  1.2958201170 2.7875101566 -0.0622000024
