11

O  1.0050899982 0.0042300005 -0.1429800093
C  2.3553302288 0.0452900045 0.0064800004
C  3.0174603462 1.2498800755 0.0433200039
C  4.3952002525 1.2132900953 0.1982500106
C  5.0046501160 -0.0244300030 0.3044300079
N  4.3143205643 -1.1856101751 0.2631000280
N  2.9643001556 -1.1498501301 0.1112900153
H  0.8466100693 -0.9569301009 -0.1310700029
H  2.4781303406 2.1842801571 -0.0456800014
H  4.9792699814 2.1252303123 0.2353900224
H  6.0771808624 -0.1256500036 0.4272700250
