15

C  0.7606800795 -0.0270300005 0.0843400061
C  2.2436201572 -0.0229200013 0.2845600247
C  3.0613703728 0.9134900570 -0.2210400105
C  4.5493502617 0.9393400550 -0.0115200011
C  5.3082304001 0.8151600361 -1.3228901625
O  4.9323000908 -0.2429700196 -2.0786800385
O  6.2144904137 1.5650101900 -1.6569101810
H  0.4570600390 -0.9427300692 -0.4323400259
H  0.4204000235 0.8289500475 -0.5079300404
H  0.2544300258 0.0064900005 1.0534700155
H  2.6427402496 -0.8291800618 0.8961700797
H  2.6487002373 1.7293901443 -0.8154600859
H  4.8895907402 0.1374700069 0.6528100371
H  4.8222904205 1.8929901123 0.4531700313
H  4.1924500465 -0.7460800409 -1.6856601238
