15

C  0.9574600458 0.3087600172 -0.6117900610
O  2.2568500042 0.0701300055 -0.0754500031
C  3.0357100964 1.1979901791 -0.0796200037
C  4.3755402565 1.1682699919 0.0000000000
C  5.1589202881 -0.1120000109 0.0863300040
C  5.0785403252 2.3859002590 0.0000000000
C  5.6736207008 3.4166102409 0.0000000000
H  0.4170800447 -0.6418200731 -0.6267000437
H  1.0227900743 0.6844200492 -1.6384601593
H  0.4009000063 1.0106401443 0.0180799998
H  2.4797101021 2.1271002293 -0.1301600039
H  4.5213503838 -1.0011800528 0.0758200064
H  5.7442402840 -0.1369600147 1.0115201473
H  5.8492407799 -0.1919400096 -0.7600800991
H  6.2076702118 4.3380899429 0.0008000000
