15

N  1.5371401310 -1.0901800394 -0.6429100633
C  2.0271701813 -0.2535400391 0.3126200140
N  1.6638001204 -0.3322900236 1.5463501215
C  3.0722301006 0.7693800926 -0.0824200064
C  4.4706606865 0.2198100239 0.1567600220
C  4.8484606743 -0.8649600148 -0.8243400455
O  4.1158304214 -1.2848701477 -1.7172300816
H  2.1761801243 -1.2378400564 -1.4318701029
H  1.1506000757 -1.9665901661 -0.3186800182
H  0.9437201023 -1.0515500307 1.6414901018
H  2.9214203358 1.6668500900 0.5289400220
H  2.9278001785 1.0532799959 -1.1310800314
H  4.5686903000 -0.1940500140 1.1660900116
H  5.2053604126 1.0234301090 0.0430100039
H  5.8602004051 -1.2845300436 -0.6877400875
