19

C  1.6566600800 -0.2176700234 2.6470303535
C  0.8893400431 -0.0271400027 1.3508900404
C  1.8262301683 0.1786200255 0.1652500182
O  1.0275000334 0.3882900476 -1.0007300377
C  1.6842701435 0.6033900380 -2.1793901920
C  3.0025503635 0.6235300899 -2.4216802120
C  3.5841302872 0.8789801002 -3.7740201950
H  0.9637800455 -0.3741700351 3.4797103405
H  2.2664201260 0.6631700397 2.8741600513
H  2.3191602230 -1.0874100924 2.5876302719
H  0.2139100134 0.8315300345 1.4411101341
H  0.2488900125 -0.8975000381 1.1656600237
H  2.4535100460 -0.7113900185 0.0336300060
H  2.4600203037 1.0556200743 0.3440500200
H  0.9485100508 0.7682900429 -2.9606602192
H  3.7225000858 0.4506300092 -1.6279100180
H  2.8149602413 1.0909700394 -4.5231904984
H  4.1548805237 0.0061400007 -4.1056604385
H  4.2622604370 1.7370800972 -3.7305402756
