13

C  1.0049901009 -0.0323100016 0.0059000002
O  2.4268202782 0.0160800014 -0.0009900001
C  2.9088802338 1.3610701561 0.0030400001
C  4.4307703972 1.3308900595 -0.0053700004
C  4.9752006531 2.6898002625 -0.0018900002
N  5.3958101273 3.7711002827 0.0009300000
H  0.6964600682 -1.0811101198 0.0027000001
H  0.6014100909 0.4541100264 -0.8873000741
H  0.6103400588 0.4460100234 0.9074300528
H  2.5404703617 1.8774001598 0.8981201053
H  2.5308103561 1.8862301111 -0.8828200698
H  4.7840700150 0.7801000476 -0.8849500418
H  4.7935805321 0.7717800736 0.8650300503
