15

O  2.8912003040 -1.0601501465 0.6312800646
C  2.3931500912 0.0141300010 0.3262300193
N  3.0834202766 1.1487600803 0.0022500001
C  4.5203905106 1.1481502056 -0.1367800087
C  5.0263304710 2.5499300957 0.0091600008
C  5.9861302376 3.1331903934 -0.9937300682
N  4.5940604210 3.5769603252 -0.9463500977
H  1.3036801815 0.1716400087 0.2886000276
H  2.5856401920 1.9312201738 -0.4047100246
H  4.7531504631 0.7276800275 -1.1215600967
H  4.9678001404 0.4972900450 0.6220000386
H  5.0929803848 2.8598501682 1.0454500914
H  6.2658505440 2.5450901985 -1.8590101004
H  6.7335305214 3.8353102207 -0.6469400525
H  4.5256700516 4.4897899628 -0.4907600582
