16

C  1.0059500933 0.1040100083 -0.1306800097
O  2.4071700573 0.0493500046 -0.3650000095
C  3.0768601894 1.2343400717 -0.2269000113
C  4.4017305374 1.3431401253 -0.2905100286
C  4.8112306595 2.7554900646 -0.0944400057
N  3.5630602837 3.5440704823 -0.0576000027
C  2.4519002438 2.5667901039 0.0146400016
H  0.6078400612 -0.9113200307 -0.2242800146
H  0.5088700056 0.7308900952 -0.8772600293
H  0.7886400819 0.4595100284 0.8825100660
H  5.0857605934 0.5232800245 -0.4438900352
H  5.3568706512 2.8728604317 0.8476700187
H  5.4518699646 3.0973303318 -0.9144901037
H  3.4836401939 4.0342502594 -0.9472900629
H  1.6990401745 2.8096601963 -0.7418301105
H  1.9919000864 2.6138100624 1.0069500208
