15

O  0.9382401109 0.0710700080 0.0356700011
C  2.3603601456 0.0176400021 0.0530000068
C  2.9273900986 1.4328200817 0.0000000000
C  4.3713903427 1.4328200817 0.0000000000
C  5.5615506172 1.4328200817 0.0000000000
C  7.0055508614 1.4328200817 0.0000000000
O  7.4946107864 2.7662901878 0.0541400015
H  0.6191100478 -0.8467300534 0.0803800076
H  2.6942501068 -0.5704100132 -0.8089200854
H  2.6767902374 -0.4966600239 0.9669901133
H  2.5423402786 2.0070502758 0.8512800932
H  2.5433502197 1.9417501688 -0.8923000693
H  7.4043307304 0.9603300691 -0.9027700424
H  7.4034605026 0.8934500813 0.8643600345
H  7.0030708313 3.2698302269 -0.6171100736
