20

C  3.8479304314 3.4624903202 -3.1888802052
C  3.9004602432 2.2485001087 -2.2832601070
O  4.9241204262 2.4550402164 -1.3121501207
C  5.0196905136 1.3590501547 -0.4038500190
C  6.1599903107 1.6111100912 0.5768899918
C  5.9142408371 2.8567001820 1.4264900684
N  6.9923205376 3.0265300274 2.3990001678
H  3.0800302029 3.3429002762 -3.9579503536
H  4.8152804375 3.6226000786 -3.6763503551
H  3.6301302910 4.3658304214 -2.6095004082
H  4.1268601418 1.3533101082 -2.8729403019
H  2.9351902008 2.1150200367 -1.7824701071
H  5.2209305763 0.4389000237 -0.9641600847
H  4.0722703934 1.2430801392 0.1350200176
H  7.0955805779 1.7364501953 0.0173100010
H  6.2744503021 0.7322200537 1.2227400541
H  4.9645500183 2.7647001743 1.9642801285
H  5.8560905457 3.7503902912 0.7959200740
H  7.8739805222 3.1522002220 1.9021201134
H  6.8379101753 3.8907403946 2.9171600342
