16

C  0.5830300450 1.2310301065 0.6656400561
C  -0.8260700703 0.7636600137 0.4224300385
C  -0.8394100666 0.0018100002 -0.8599801064
C  0.5631000400 -0.0118200006 -1.4081300497
C  1.2432000637 0.0095600011 -0.0177300014
C  0.5038200021 -1.1478501558 0.6787200570
N  -0.9029000998 -0.7069900632 0.4292800426
H  0.8034300208 2.1746401787 0.1582000107
H  0.8185500503 1.3018300533 1.7315901518
H  -1.6599801779 1.3488200903 0.7645100951
H  -1.6825401783 -0.0147100016 -1.5252100229
H  0.7788600922 -0.9223700762 -1.9753601551
H  0.7859600782 0.8767901063 -2.0053203106
H  2.3324503899 -0.0244100019 -0.0084000006
H  0.7140401006 -1.2015500069 1.7521901131
H  0.6994100213 -2.1195702553 0.2130300254
