18

N  1.0122600794 0.0372100025 -0.0982400104
C  2.4610502720 -0.0163700003 0.0445000008
C  3.0011403561 1.1249099970 0.9042600989
C  4.4159502983 0.6662700176 1.2447900772
C  4.2617602348 -0.8230600357 1.3828800917
C  5.1286902428 -1.6285101175 2.0067300797
C  2.9597601891 -1.2744801044 0.7683600783
H  0.6966300011 -0.7295000553 -0.6903600097
H  0.7452500463 0.8994400501 -0.5712800622
H  2.9167802334 0.0340800025 -0.9530600905
H  2.4123201370 1.2424100637 1.8241101503
H  2.9969103336 2.0845301151 0.3768000305
H  5.0959501266 0.8941400647 0.4166900218
H  4.7842702866 1.1446400881 2.1562602520
H  4.9446806908 -2.6947603226 2.0953702927
H  6.0389704704 -1.2391000986 2.4523601532
H  3.0925102234 -2.1070702076 0.0683700070
H  2.2654600143 -1.5794501305 1.5617700815
