15

N  1.0000001192 0.0000000000 0.0000000000
C  2.1510102749 0.0000000000 0.0000000000
C  3.5950102806 0.0000000000 0.0000000000
C  4.1949400902 1.1239100695 0.8291300535
C  5.5778002739 0.5880600214 1.1419700384
N  5.3424601555 -0.8243300915 1.4324101210
C  4.1950802803 -1.2593500614 0.6222000122
H  3.9648504257 0.0932600051 -1.0300400257
H  3.6287002563 1.2898700237 1.7557601929
H  4.2311801910 2.0714800358 0.2820800245
H  6.2370705605 0.6907800436 0.2716400325
H  6.0379004478 1.1015400887 1.9905701876
H  6.1718106270 -1.3856201172 1.2403800488
H  4.5192503929 -1.9553201199 -0.1608600020
H  3.4895703793 -1.7938401699 1.2684201002
