19

C  0.9896400571 0.1449400038 -0.1896800250
C  2.4833600521 0.0688700080 0.0097100008
N  2.9156603813 -0.0576400049 1.4306000471
C  3.3166301250 -0.6413900256 -1.0296400785
C  3.4148104191 0.8594500422 -0.9313001037
C  2.8617103100 1.6657301188 -2.0810401440
N  4.6400904655 1.4310700893 -0.3136100173
H  0.6979900002 0.0491800047 -1.2399801016
H  0.6057600975 1.0988601446 0.1868800074
H  0.4903400540 -0.6637600660 0.3549900353
H  3.7510702610 -0.6411300302 1.4865001440
H  2.2109601498 -0.5642500520 1.9672400951
H  2.8149802685 -1.0716401339 -1.8898000717
H  4.1773104668 -1.2248301506 -0.7203100920
H  2.0807101727 1.1345801353 -2.6334500313
H  3.6573302746 1.9010602236 -2.7955503464
H  2.4407501221 2.6069302559 -1.7149201632
H  4.6716003418 1.0971599817 0.6537200809
H  4.5188302994 2.4387001991 -0.2042800188
