14

O  2.7408602238 0.2022800148 -1.7372701168
C  2.2371702194 -0.0571000054 -0.4303000271
C  2.9605600834 0.8199900389 0.5845300555
C  4.3793706894 0.3797200322 0.7741400599
C  5.0457205772 0.4520000219 2.1233501434
O  4.5366306305 -0.7835500240 1.5990400314
H  2.3194401264 -0.4413400292 -2.3327500820
H  2.3686802387 -1.1205301285 -0.2058400065
H  1.1678700447 0.1757800132 -0.4316800237
H  2.4221000671 0.7842000723 1.5380601883
H  2.9661302567 1.8611901999 0.2432000190
H  4.9862203598 0.4635300338 -0.1170900092
H  4.5126199722 0.8980301023 2.9529502392
H  6.1215701103 0.5716800690 2.1588201523
