14

O  1.1932901144 -0.0268700011 0.4031400383
N  2.3823502064 0.0478500053 -0.3513000309
C  3.2041304111 1.1993200779 -0.0936400071
C  4.4844703674 0.8306701183 -0.8203100562
C  4.5835204124 -0.6873500347 -0.6423200369
C  3.1589300632 -1.1059300900 -0.3634900451
O  2.7698702812 -2.2319700718 -0.0981600061
H  1.1089001894 -0.9910500646 0.5635499954
H  3.3688700199 1.2907000780 0.9856600761
H  2.7284600735 2.1040000916 -0.4792000353
H  4.3907999992 1.0652900934 -1.8882701397
H  5.3602004051 1.3611900806 -0.4357400537
H  4.9696602821 -1.1803500652 -1.5370601416
H  5.1987805367 -0.9377201200 0.2268000096
