16

C  1.1479001045 0.1491400152 0.0726700053
C  2.6441099644 -0.1136700064 -0.0484900028
C  2.9568901062 -0.8108500242 -1.3089101315
C  3.2092101574 -1.3887000084 -2.3323101997
C  3.4200003147 1.1747701168 -0.1323000044
C  3.7163803577 1.9604901075 1.1237601042
N  4.7762904167 1.2511900663 0.4204500318
H  0.9222000837 0.6910500526 0.9974300861
H  0.5842300057 -0.7902900577 0.0829900056
H  0.7740600705 0.7528300285 -0.7628300190
H  2.9749300480 -0.7186000943 0.8043600917
H  3.4395601749 -1.9027402401 -3.2362301350
H  3.2240302563 1.7446701527 -1.0355499983
H  3.4288101196 1.5469400883 2.0825402737
H  3.7342302799 3.0416502953 1.0682700872
H  5.3502206802 1.8874300718 -0.1360400170
