14

C  0.9917200804 -0.0373600014 -0.0417700000
C  2.5200002193 0.0000000000 0.0000000000
C  3.0382602215 -0.7609900236 1.2196700573
O  3.0092604160 -0.6707400680 -1.1613001823
C  3.0020201206 1.3611700535 0.0000000000
C  3.3993003368 2.4830701351 0.0000000000
H  0.6103000045 0.4657000303 -0.9381400347
H  0.5491100550 0.4493900239 0.8337600827
H  0.6277200580 -1.0697300434 -0.0873400047
H  2.6990702152 -0.3071200252 2.1568200588
H  4.1343302727 -0.7843800187 1.2311000824
H  2.7064301968 -1.8049501181 1.1989901066
H  2.8059802055 -0.1015100107 -1.9229801893
H  3.7608802319 3.4856603146 0.0018100002
