15

O  1.0942300558 0.0386700034 0.3496600389
C  2.2954301834 0.0170200020 0.0828800052
C  3.0650401115 -1.2754001617 0.0018000001
C  3.9968903065 -1.2064900398 -1.1911100149
O  4.8168702126 -0.0365100056 -1.1198500395
C  4.0336403847 1.1561701298 -1.2190200090
C  3.1045701504 1.2827399969 -0.0285500027
H  2.3740901947 -2.1178600788 -0.0961600095
H  3.6290102005 -1.3807600737 0.9344800115
H  4.6599802971 -2.0774302483 -1.1973201036
H  3.4431502819 -1.2046201229 -2.1375501156
H  4.7232303619 2.0057201385 -1.2461100817
H  3.4795303345 1.1488500834 -2.1656401157
H  3.6718003750 1.3932301998 0.9018000364
H  2.4400401115 2.1432301998 -0.1474600136
