12

C  0.8656000495 -0.1074400097 -0.0104300007
N  2.3038001060 -0.0088800006 0.0889900029
S  3.0960903168 1.4623399973 -0.0186900012
C  4.6918802261 0.7060200572 -0.0186600015
O  5.7606201172 1.2882801294 -0.0442300029
C  4.5167403221 -0.7560300231 0.0077700005
C  3.2101802826 -1.0397800207 0.0505600050
H  0.3745200336 0.8699100614 0.0550300032
H  0.4753100574 -0.7272200584 0.8039100170
H  0.5766900182 -0.5688000321 -0.9605200887
H  5.3452701569 -1.4399300814 -0.0189100020
H  2.8098402023 -2.0474503040 0.0608100034
