17

C  0.8510600328 0.0935100093 0.2760500312
C  2.1889202595 0.1671700031 0.2849300206
C  3.0402603149 1.3794400692 0.0504300036
C  2.3557403088 2.7412002087 0.0506700054
C  3.4884700775 3.6499204636 0.4577400386
C  4.1984601021 2.8038201332 1.4916901588
O  4.0365204811 1.4370800257 1.0893601179
H  0.3531900346 -0.8539900780 0.4629000425
H  0.2198400199 0.9538900852 0.0851100087
H  2.7492501736 -0.7467600703 0.4766900539
H  3.5841302872 1.2415500879 -0.8925800323
H  1.5646601915 2.7972402573 0.8086100817
H  1.9212100506 2.9993503094 -0.9194300771
H  4.1480703354 3.8299303055 -0.3991900384
H  3.1597003937 4.6161203384 0.8487800360
H  5.2629404068 3.0417702198 1.5701901913
H  3.7408902645 2.9179201126 2.4803102016
