15

C  3.7687201500 -1.6257500648 -0.0943000019
O  4.7793507576 -0.6323400140 -0.2091500163
C  4.2390203476 0.6774500608 -0.1017500088
C  5.2693901062 1.8077201843 -0.1631000191
O  4.9239902496 2.9840402603 -0.0374800004
C  6.7008504868 1.4496700764 -0.3893600106
C  7.6395707130 2.3974001408 -0.5032800436
H  4.2345199585 -2.6069402695 -0.2213000059
H  3.0092401505 -1.4959900379 -0.8712200522
H  3.3050401211 -1.5858801603 0.8968100548
H  3.7153103352 0.7736300826 0.8558500409
H  3.5348303318 0.8414101005 -0.9260000587
H  6.9535303116 0.3985200226 -0.4615400434
H  7.3940806389 3.4535701275 -0.4346200526
H  8.6781806946 2.1328802109 -0.6702401042
