19

C  3.3127202988 -1.2016201019 -0.7822600603
C  2.6147701740 -0.1964200139 0.1190800071
C  3.0927803516 1.2459901571 -0.0848000050
O  2.3025801182 2.1060202122 0.7421300411
C  4.5896501541 1.5037701130 0.1768500060
C  5.0643501282 1.1037000418 1.5512701273
C  5.5359301567 1.9672201872 2.4614200592
H  2.8693201542 -2.1939802170 -0.6525900364
H  4.3777403831 -1.2812501192 -0.5467799902
H  3.2104701996 -0.9209400415 -1.8351601362
H  2.7263102531 -0.4951200485 1.1683300734
H  1.5347701311 -0.2363900244 -0.0744900033
H  2.8772201538 1.5396200418 -1.1190201044
H  2.5747601986 1.9503102303 1.6641001701
H  4.7857904434 2.5730900764 0.0237800032
H  5.1935505867 0.9666500688 -0.5636300445
H  5.0407805443 0.0445200019 1.7982501984
H  5.5973501205 3.0318400860 2.2607302666
H  5.8797106743 1.6207501888 3.4314701557
