18

C  0.9654700756 -0.0227100011 0.0500700027
C  2.4625501633 0.0315700024 -0.0025700002
C  3.1163902283 1.2095301151 -0.0355400033
C  4.6156702042 1.2720102072 -0.0607400052
C  5.2688102722 -0.0787700117 0.2669399977
N  4.6034402847 -1.1826201677 -0.4276400208
C  3.1974401474 -1.2868500948 -0.0214900002
H  0.6036700606 -1.0558100939 0.0752499998
H  0.5311000347 0.4579700232 -0.8326500654
H  0.5918700695 0.4789800346 0.9488300681
H  2.5720202923 2.1494400501 -0.0466000028
H  4.9319701195 1.6089900732 -1.0553400517
H  4.9611001015 2.0192101002 0.6628200412
H  6.3224906921 -0.0483100042 -0.0323500037
H  5.2528705597 -0.2557100058 1.3501901627
H  5.0743803978 -2.0580701828 -0.2089800090
H  3.1328902245 -1.7422301769 0.9746000767
H  2.7050001621 -1.9681901932 -0.7244000435
