15

C  1.0758000612 -0.2919900119 1.7688001394
C  1.6701601744 -0.1674700081 0.5746800303
C  2.5316402912 0.9843100905 0.1646200120
O  3.7645802498 0.4451200068 -0.3020700216
C  4.7066502571 1.4570400715 -0.6565800309
C  4.3862805367 2.0533201694 -1.9601200819
C  4.1237502098 2.5415501595 -3.0242900848
H  0.4672900438 -1.1622700691 1.9950001240
H  1.1841500998 0.4602400362 2.5435001850
H  1.5349601507 -0.9499600530 -0.1684800237
H  2.7136301994 1.6617200375 1.0068800449
H  2.0324001312 1.5355801582 -0.6391700506
H  5.6871104240 0.9723100662 -0.7142400146
H  4.7693405151 2.2153301239 0.1319600195
H  3.8882601261 2.9692404270 -3.9724402428
