19

C  3.0786802769 -0.9151601195 -0.7782700658
C  2.6693003178 0.0105400011 0.3601400256
C  3.0655703545 1.4697301388 0.1053900048
C  2.4901101589 2.3840203285 1.1834400892
C  4.5710506439 1.6129801273 0.1201300099
N  5.1975007057 2.0640702248 -0.9195300937
N  6.5356903076 2.1272399426 -0.7395400405
H  2.7264602184 -1.9326502085 -0.5806700587
H  4.1666202545 -0.9544900656 -0.8903700709
H  2.6455202103 -0.5851600766 -1.7278701067
H  3.1212601662 -0.3520800173 1.2915600538
H  1.5815801620 -0.0557200052 0.4842400253
H  2.6854002476 1.7929000854 -0.8714500666
H  2.8541803360 2.1072301865 2.1792902946
H  1.3963701725 2.3354802132 1.1941100359
H  2.7810301781 3.4252002239 1.0054700375
H  5.0969200134 1.3145401478 1.0471100807
H  6.9861307144 2.2827901840 -1.6456800699
H  6.7848105431 2.9524602890 -0.1877500117
