10

C  0.9279200435 0.0204700027 -0.0003000000
C  2.1294302940 0.0220200010 0.0002500000
C  3.5575602055 0.0218300018 0.0009200001
N  4.1638503075 1.2050700188 0.0020200002
S  5.8048005104 0.9503700137 0.0026300002
C  5.7175502777 -0.7605500221 0.0014200001
C  4.3896603584 -1.1334000826 0.0005200000
H  -0.1363800168 0.0308200028 -0.0007700000
H  6.6037206650 -1.3786201477 0.0014200001
H  4.0407900810 -2.1568403244 -0.0003400000
