12

C  0.9033700228 0.0609600022 -0.2490200102
C  2.4236502647 0.1374300122 -0.2760900259
C  2.9502704144 -0.7193700671 -1.3991200924
O  3.8945803642 -0.4009600580 -2.1150600910
C  2.9118301868 1.5631701946 -0.3727000356
O  2.2147402763 2.5437500477 -0.1242400110
H  0.4949400425 0.6264500618 0.5951100588
H  0.5619500279 -0.9756100774 -0.1560299993
H  0.4702400565 0.4716400504 -1.1680700779
H  2.8247902393 -0.2820100188 0.6549000144
H  2.4913103580 -1.7181401253 -1.4971001148
H  3.9873602390 1.6902201176 -0.5899000168
