13

N  0.9376800656 0.1128500104 -0.1121700108
C  2.2816603184 0.0214000009 -0.0609900020
C  3.1857602596 1.0613400936 -0.0198800024
C  4.5287904739 0.6043900251 0.0296200011
N  5.5966501236 1.4220000505 0.0761900097
C  4.6163201332 -0.7649900913 0.0259900019
S  3.0699203014 -1.4971301556 -0.0389700010
H  0.4688100219 0.9838001132 0.1123100072
H  0.3832700253 -0.7190000415 0.0659500062
H  2.8896701336 2.1012201309 -0.0277800020
H  5.5131902695 2.4291203022 -0.0156800002
H  6.5497307777 1.0776600838 0.0157100018
H  5.5030608177 -1.3809201717 0.0579200052
