18

N  1.4521701336 0.2340000272 0.6647500396
C  2.4830400944 0.4801000357 -0.3482900262
C  2.0915400982 -0.2107600123 -1.6761801243
C  3.1635000706 -0.1285900027 -2.7339200974
C  3.7814803123 -1.1911301613 -3.2672700882
C  2.6168501377 1.9722701311 -0.4945500493
C  3.7429401875 2.6609601974 -0.2656100392
H  1.7639501095 0.6415300369 1.5459001064
H  1.3811501265 -0.7684600353 0.8301500678
H  3.4246702194 0.0472800024 0.0133200008
H  1.1748801470 0.2370300144 -2.0820500851
H  1.8567501307 -1.2654401064 -1.4768002033
H  3.4286201000 0.8663100600 -3.0865802765
H  3.5468802452 -2.2047801018 -2.9595701694
H  4.5392904282 -1.0627801418 -4.0345005989
H  1.7249501944 2.5119402409 -0.8081600666
H  4.6588001251 2.1702899933 0.0487100035
H  3.7672903538 3.7392501831 -0.3901000023
