19

C  0.9724700451 -0.0197400022 0.0550400056
C  2.4891200066 -0.0446100011 0.0315899998
C  3.2034900188 1.0370200872 0.8911100626
C  4.2244505882 -0.0363400020 1.3350901604
N  5.3766303062 -0.0081400005 0.4221300483
C  3.1721203327 -1.1097900867 0.9347301126
N  3.7433903217 -2.1712701321 0.1010400057
H  0.5654500723 -0.8917100430 -0.4681000412
H  0.5945700407 0.8785300255 -0.4447300434
H  0.5822700262 -0.0268400013 1.0787301064
H  2.8468401432 -0.0300500020 -1.0079700947
H  2.5959000587 1.4117300510 1.7251402140
H  3.5890803337 1.9015201330 0.3417800367
H  4.4988903999 -0.0177300014 2.3931601048
H  5.1485404968 0.1689300239 -0.5526100397
H  5.8806900978 -0.8957000375 0.4402600229
H  2.5671901703 -1.4661300182 1.7762302160
H  4.2581200600 -1.8318201303 -0.7080000639
H  3.0410101414 -2.8123900890 -0.2664000094
