14

N  0.0848200098 1.2118999958 0.4409100413
C  1.3005200624 0.5783200264 0.4943600297
C  2.3393402100 0.7674400806 -0.3274000287
C  3.5925004482 -0.0064300001 -0.1294100136
O  3.7188003063 -0.8601600528 0.7395400405
C  4.6821403503 0.3346400261 -1.0841600895
C  5.8592405319 -0.3008400202 -1.0246200562
H  -0.6831800938 0.6602300406 0.8195400834
H  -0.1389400065 1.6415601969 -0.4526300430
H  1.3684401512 -0.1336100101 1.3185400963
H  2.2920100689 1.4825901985 -1.1369301081
H  4.5046701431 1.1042400599 -1.8248101473
H  6.0504903793 -1.0745600462 -0.2850400209
H  6.6595306396 -0.0597200021 -1.7156801224
