13

N  1.1285901070 -0.0910700038 -0.1978500187
N  2.4838902950 -0.0519900061 0.0759800076
C  3.2534103394 -1.1666101217 0.1495100111
C  4.5167002678 -0.8198400140 0.4121900201
C  4.6522002220 0.6800800562 0.5254700184
C  3.2141702175 1.1263700724 0.2782900333
O  2.7945504189 2.2725000381 0.2640300393
H  0.8796200752 0.8291200995 -0.5766600370
H  0.6393800974 -0.1334900111 0.6977800131
H  2.8403904438 -2.1545801163 0.0041900002
H  5.3397307396 -1.5104701519 0.5230500698
H  4.9742603302 0.9773000479 1.5258702040
H  5.3115906715 1.0797001123 -0.2481500208
