17

C  1.0128300190 0.1282800138 0.1301500052
C  2.5003499985 -0.1001200005 -0.0451700054
O  3.2672603130 0.9484500289 0.5997300744
C  4.0653104782 -0.0313500017 1.3027400970
C  3.1481802464 -1.1720100641 0.8512900472
C  3.7970502377 -2.3213100433 0.1126400083
O  4.4942502975 -3.1462600231 1.0384100676
H  0.4454100430 -0.7289000750 -0.2465200275
H  0.6909100413 1.0148501396 -0.4254900217
H  0.7482600808 0.2746800184 1.1827100515
H  2.7769701481 -0.1669100076 -1.1049201488
H  5.0903506279 -0.0513500012 0.9204200506
H  4.0777702332 0.1549600065 2.3802702427
H  2.4863600731 -1.5214900970 1.6547800303
H  4.4980902672 -1.9853101969 -0.6585600376
H  3.0352103710 -2.9401600361 -0.3712800443
H  5.3223404884 -2.6961002350 1.2779700756
