18

C  0.9804000854 0.0025000002 0.1516100168
N  2.4378602505 -0.0349600017 0.1419300139
C  2.9935903549 1.3032001257 -0.1047400087
C  4.5384702682 1.3378901482 -0.0424400046
C  5.1894407272 0.4392700195 -1.0966100693
C  5.0141301155 2.7284600735 -0.2189600170
C  5.4032506943 3.8563103676 -0.3622300029
H  0.5918300748 -1.0055000782 0.3268300295
H  0.5813400745 0.3555200100 -0.8049100637
H  0.6060200334 0.6439200044 0.9558700323
H  2.7431602478 -0.6715900302 -0.5936100483
H  2.6006803513 1.9984401464 0.6493000388
H  2.6566603184 1.6683501005 -1.0842300653
H  4.8578400612 0.9896600842 0.9485501051
H  4.8565106392 0.7038601041 -2.1067602634
H  4.9529404640 -0.6154400706 -0.9248700738
H  6.2811508179 0.5361400247 -1.0731101036
H  5.7508201599 4.8554100990 -0.4891300499
