16

N  2.4078099728 -0.4673100412 1.4649600983
C  2.4972400665 0.0199400019 0.0975700095
C  3.0482203960 1.3970701694 0.0477200039
C  4.1746406555 1.8105901480 -0.5368200541
C  4.3309998512 3.2719101906 -0.3562900424
O  3.1188502312 3.7177603245 0.2715300024
C  2.3557202816 2.5602300167 0.6589600444
H  2.1554303169 -1.4543100595 1.4487301111
H  1.6461900473 0.0052900007 1.9476702213
H  1.5074801445 -0.0051500006 -0.3709800243
H  3.1373002529 -0.6613600254 -0.4744400382
H  4.8846302032 1.1844700575 -1.0549200773
H  5.1797003746 3.5123002529 0.2909600139
H  4.4418001175 3.7915000916 -1.3122800589
H  1.3354301453 2.6786303520 0.2815200388
H  2.3377702236 2.5041701794 1.7518701553
