17

C  2.7021801472 -1.3831400871 -0.7194500566
C  2.0069901943 -0.1186600104 -0.2377300113
C  2.9881401062 0.9679901004 0.1507200003
C  3.7641904354 0.7303200364 1.4201002121
C  3.6370303631 1.7807800770 -0.9509500861
N  2.5716602802 2.3505401611 -0.1376400143
H  1.9616501331 -2.1277902126 -1.0299301147
H  3.3146800995 -1.8284901381 0.0706700087
H  3.3549003601 -1.1743900776 -1.5737700462
H  1.3693901300 -0.3578800261 0.6212000251
H  1.3379601240 0.2336800247 -1.0331201553
H  4.3839502335 1.5922501087 1.6932901144
H  4.4315700531 -0.1296800077 1.3084900379
H  3.0824503899 0.5320800543 2.2540400028
H  3.3798301220 1.5641400814 -1.9815602303
H  4.6325001717 2.1817603111 -0.8015300632
H  2.9453701973 3.0031602383 0.5537800789
