17

C  1.1183199883 -0.2839600146 0.2031600177
C  2.6288001537 -0.1429800093 0.0723300055
C  3.0677003860 1.3179001808 -0.0408700034
O  2.6932101250 2.0253701210 1.1441701651
C  4.5928106308 1.4366201162 -0.2188200206
N  4.9887900352 2.8531303406 -0.1965300143
H  0.8409900665 -1.3419101238 0.2437100112
H  0.6069600582 0.1685300171 -0.6520000696
H  0.7513400912 0.1943200082 1.1167900562
H  2.9650800228 -0.7006100416 -0.8091800213
H  3.0924201012 -0.6039500237 0.9532501101
H  2.5579802990 1.7969901562 -0.8851900697
H  3.3060002327 2.7896201611 1.1755501032
H  4.9137601852 0.9708200693 -1.1558201313
H  5.1052002907 0.9361600876 0.6099100709
H  4.6077804565 3.3214101791 -1.0204401016
H  6.0038805008 2.9118800163 -0.2897000015
