15

C  0.9170300364 0.0641700029 0.0621400028
C  2.4274203777 0.0073900004 0.1331400126
C  3.0465202332 1.0950100422 -0.6776400805
N  3.7703902721 0.6628800631 -1.6561501026
N  3.7483003139 -0.7639600635 -1.6297800541
C  3.0095400810 -1.1379001141 -0.6307300329
C  2.7676503658 -2.5596303940 -0.2613200247
H  0.5423300266 1.0014500618 0.4868800342
H  0.4690900445 -0.7662900686 0.6173200607
H  0.5575500131 0.0024300001 -0.9716100693
H  2.8017301559 0.0348899998 1.1587600708
H  2.8909602165 2.1560201645 -0.4392500222
H  3.3341202736 -3.2248501778 -0.9182200432
H  1.7030901909 -2.7879703045 -0.3541700244
H  3.0814902782 -2.7232701778 0.7728300691
