17

C  0.9496900439 0.0052800006 0.0153600015
C  2.4697701931 0.0087600015 0.0153000019
C  3.0273902416 1.4328200817 0.0000000000
C  4.4713902473 1.4328200817 0.0000000000
C  5.6615505219 1.4328200817 0.0000000000
C  7.1055507660 1.4328200817 0.0000000000
O  7.5945005417 2.7671103477 -0.0401600003
H  0.5735500455 -1.0221800804 0.0264100004
H  0.5557100177 0.5014800429 -0.8775700331
H  0.5557500124 0.5205400586 0.8974600434
H  2.8311202526 -0.5452000499 -0.8592000604
H  2.8311603069 -0.5262900591 0.9014800787
H  2.6557402611 1.9812102318 0.8736900687
H  2.6557500362 1.9623101950 -0.8852700591
H  7.5043406487 0.8982600570 -0.8674200773
H  7.5036807060 0.9556600451 0.9001000524
H  7.1030006409 3.2203803062 -0.7460000515
