19

C  0.9232701063 -0.1590100080 -0.0584200062
C  2.4085602760 0.0106500005 -0.1306900084
C  3.1190202236 1.1451801062 0.0398500040
C  2.4759302139 2.4932200909 0.2688900232
C  4.5880703926 1.1330901384 -0.0427800044
C  5.2330708504 0.2812200189 -1.1070400476
C  5.3495502472 1.8904701471 0.7657400370
H  0.6862100363 -1.0081900358 0.5910500288
H  0.5239400268 -0.3715300262 -1.0545301437
H  0.4029200375 0.7103500366 0.3490000367
H  2.9355702400 -0.9258500338 -0.3067900240
H  1.4387800694 2.5289001465 -0.0722000003
H  3.0011301041 3.2759001255 -0.2908300161
H  2.4945402145 2.7528102398 1.3321501017
H  4.7589302063 0.4516900480 -2.0797500610
H  5.1591501236 -0.7822200656 -0.8589900732
H  6.2973203659 0.5141200423 -1.2243400812
H  4.9251403809 2.5184900761 1.5433101654
H  6.4322605133 1.8885401487 0.6870700717
