13

O  1.1746701002 -0.0443400033 0.5197300315
C  2.3394002914 -0.0204100013 0.1457500160
C  3.1473302841 1.2434400320 0.0032800003
C  4.3662900925 0.8297700882 -0.8141900897
C  4.4417901039 -0.6662600636 -0.6522800922
O  5.4215402603 -1.3347401619 -0.9546000361
C  3.1520402431 -1.2465801239 -0.1496200114
H  3.4438602924 1.5806901455 1.0015701056
H  2.5715303421 2.0240402222 -0.5001400113
H  4.2198104858 1.0576300621 -1.8743600845
H  5.2768001556 1.3109601736 -0.4496700168
H  2.6739401817 -1.8358801603 -0.9340300560
H  3.3261501789 -1.8119400740 0.7676301003
