15

C  1.0992001295 -0.5515500307 0.4671600461
C  2.3097202778 0.0114100007 -0.2730900049
C  3.0483503342 -1.0917100906 -1.0216900110
C  1.8793601990 1.0905699730 -1.2494200468
O  0.7728400230 1.1736100912 -1.7684202194
C  2.9131703377 2.1224501133 -1.6402201653
O  4.0307102203 2.1295802593 -1.1510200500
H  0.5574600697 0.2462400198 0.9879700541
H  1.4087001085 -1.2922201157 1.2124801874
H  0.3951100111 -1.0350900888 -0.2195000201
H  2.9728603363 0.4623300433 0.4730100632
H  2.4094002247 -1.5509501696 -1.7845602036
H  3.3770604134 -1.8784101009 -0.3340000212
H  3.9348104000 -0.6991900802 -1.5316900015
H  2.5634901524 2.8499302864 -2.3901801109
