20

C  0.8963600993 -0.1731100231 -0.0772000030
C  2.4283502102 -0.1843500137 0.0429100022
C  2.8488602638 -1.0089800358 1.2687100172
N  2.9822201729 -0.8546600342 -1.1495500803
C  3.0045602322 1.2588599920 0.0986300111
C  2.5314202309 2.1023101807 1.2552100420
C  1.8244202137 3.2320501804 1.1218700409
H  0.5682500601 0.4160300195 -0.9412100911
H  0.4271000326 0.2529900372 0.8160900474
H  0.4983000159 -1.1878300905 -0.1965100169
H  2.4160401821 -0.6084400415 2.1914601326
H  3.9386103153 -1.0202500820 1.3870301247
H  2.5136702061 -2.0497801304 1.1841400862
H  2.6749100685 -0.3665300310 -1.9907602072
H  2.6044802666 -1.7993501425 -1.2200500965
H  2.7750704288 1.7745801210 -0.8445301056
H  4.1008400917 1.2114700079 0.1544700116
H  2.8111701012 1.7741001844 2.2537603378
H  1.5333300829 3.6130802631 0.1478300095
H  1.5245801210 3.8055002689 1.9938501120
