13

C  1.0113000870 -0.0738400072 0.0640900061
O  2.4306001663 -0.0089300005 0.0594600029
C  2.8940103054 1.3385500908 0.0000000000
C  4.3380103111 1.3385500908 0.0000000000
C  5.5281705856 1.3385500908 0.0000000000
C  6.9685907364 1.3270701170 0.0005600000
O  7.6046504974 2.3714601994 -0.0308200028
H  0.7147700787 -1.1250801086 0.1101800054
H  0.6041400433 0.3638100326 -0.8525700569
H  0.6064400673 0.4417400360 0.9403300881
H  2.5130603313 1.8920902014 0.8656100631
H  2.5129301548 1.8136202097 -0.9109900594
H  7.4392204285 0.3320000172 0.0305400006
