18

C  2.7684903145 -1.5688501596 -0.3929300308
C  2.0843100548 -0.2303000242 -0.1707200110
O  1.1230400801 -0.3648600280 0.8733300567
C  3.0427002907 0.8934600353 0.2004200071
C  4.0269503593 0.6054200530 1.3077901602
C  3.4313402176 1.8955501318 -0.8654700518
N  2.4623601437 2.2558901310 0.1639200151
H  3.5553600788 -1.4938201904 -1.1502801180
H  2.0380802155 -2.3175902367 -0.7195700407
H  3.2093601227 -1.9551801682 0.5329000354
H  1.5320100784 0.0271600038 -1.0824600458
H  0.7871400118 0.5404400826 1.0156800747
H  4.5780701637 1.5021901131 1.6119301319
H  4.7652206421 -0.1331700087 0.9814600945
H  3.5119004250 0.2163400054 2.1915502548
H  3.0356302261 1.7776201963 -1.8675901890
H  4.3998603821 2.3788702488 -0.8126500249
H  2.8910102844 2.8569703102 0.8714900613
