12

C  0.9970600605 -0.0362500027 0.0971600041
C  2.5200002193 0.0000000000 0.0000000000
C  2.9482002258 -0.7862401009 -1.2268500328
O  3.7517704964 -0.4125200510 -2.0759701729
C  3.0020201206 1.3611700535 0.0000000000
C  3.3993003368 2.4830701351 0.0000000000
H  0.6463200450 0.4755300283 1.0001901388
H  0.6297900081 -1.0679000616 0.1303000152
H  0.5297300220 0.4506300092 -0.7670000792
H  2.9340102673 -0.5354800224 0.8629600406
H  2.5241701603 -1.8039201498 -1.2946200371
H  3.7627401352 3.4849302769 -0.0119600007
