13

C  0.9895901084 -0.0593900047 0.0044800001
C  2.5097801685 -0.0117800003 -0.0102100009
N  2.9623303413 1.3783100843 0.0061200005
C  4.4169306755 1.4551501274 0.0090700006
H  0.6453800797 -1.0982600451 -0.0175800025
H  0.5685600638 0.4541000128 -0.8664500713
H  0.5865000486 0.4098100364 0.9082000256
H  2.8723802567 -0.5175400376 -0.9124801159
H  2.8945302963 -0.5524100065 0.8623500466
H  2.5982000828 1.8460801840 0.8358500600
H  4.8398604393 0.9896700978 -0.8869900703
H  4.8425402641 0.9764000773 0.8968800902
H  4.7262401581 2.5048801899 0.0115800016
