16

C  1.7864401340 -0.1595800072 0.5625900030
C  2.6067802906 -0.2009300143 -0.7223200798
C  1.8524701595 -1.0269200802 -1.7490202188
O  2.2804901600 -2.0806801319 -2.2184700966
N  2.7488801479 1.1661301851 -1.2543700933
C  3.9978404045 1.8156300783 -0.8583700657
C  3.8052604198 1.2976400852 -2.2581501007
H  2.2944099903 0.4214600325 1.3400300741
H  1.6252400875 -1.1724500656 0.9497401118
H  0.7964100242 0.2829800248 0.3978500366
H  3.5673501492 -0.6940300465 -0.5263400078
H  0.8675400615 -0.6348500252 -2.0542302132
H  4.6842904091 1.2893201113 -0.2042800188
H  3.9463002682 2.8869802952 -0.7014500499
H  3.6181201935 2.0180702209 -3.0453901291
H  4.3480405807 0.4114800096 -2.5648100376
