13

C  1.2459101677 0.1932400167 0.0049500004
C  2.7102103233 -0.0371900015 -0.0000400000
N  3.6353802681 0.8989300728 -0.0068000006
C  4.8808102608 0.2802900076 -0.0088600004
C  6.1094408035 1.1074801683 -0.0162800010
N  4.9559803009 -1.0531800985 -0.0042900005
S  3.3834402561 -1.6162401438 0.0037000002
H  0.6745400429 -0.7399000525 -0.0071800007
H  0.9561900496 0.7789200544 -0.8734000921
H  0.9585201144 0.7551500797 0.8993700743
H  7.0142707825 0.4910300374 -0.0093500009
H  6.1330704689 1.7565801144 0.8649100661
H  6.1342506409 1.7387300730 -0.9103100300
