14

C  1.1384500265 -0.5806300044 -0.1805500090
C  2.5472102165 -0.0178700015 -0.0355200022
C  2.5760502815 1.5129700899 0.0457000025
C  3.9631402493 2.0304002762 0.3606200218
O  4.9034104347 1.3282501698 0.7221800089
C  2.1403100491 2.1384699345 -1.2097601891
N  1.7943201065 2.6530103683 -2.1886501312
H  1.1673500538 -1.6748001575 -0.1590800136
H  0.6812601089 -0.2782700360 -1.1276900768
H  0.4945700467 -0.2429900169 0.6377800703
H  3.1630702019 -0.3702900112 -0.8730301261
H  2.9898900986 -0.4414100349 0.8750000596
H  1.9286800623 1.8491901159 0.8645900488
H  4.0800704956 3.1289904118 0.3272000253
