16

C  1.2176301479 -0.9218200445 1.0582801104
C  1.9872500896 -1.1418200731 -0.2402800173
C  2.9447300434 -2.3193802834 -0.0928100049
O  1.1018501520 -1.4578201771 -1.3177601099
C  0.3696000278 -0.3330700397 -1.8143501282
C  -0.3612100184 -0.6919600964 -3.0422000885
N  -0.9485900998 -0.9406900406 -4.0124502182
H  0.5972600579 -0.0221300013 1.0005401373
H  1.8981901407 -0.8035000563 1.9073802233
H  0.5427100062 -1.7606301308 1.2604401112
H  2.5719602108 -0.2482300103 -0.4898100495
H  2.3995003700 -3.2450203896 0.1231700107
H  3.6717202663 -2.1451601982 0.7063300014
H  3.4896602631 -2.4866502285 -1.0283501148
H  1.0609900951 0.4885000288 -2.0324301720
H  -0.3443800211 0.0016500001 -1.0554500818
