21

C  0.9629501104 -0.0524100028 0.1589300185
C  2.4516501427 -0.1110000089 -0.1689500213
C  3.2234401703 1.2340301275 -0.0700599998
C  2.6282203197 2.2899301052 -1.0138601065
N  3.1657302380 1.7561801672 1.3130500317
C  4.7205500603 1.0032300949 -0.4591900408
N  5.4601202011 0.2212000191 0.5432699919
H  0.5253000259 -1.0522100925 0.0658299997
H  0.4229600132 0.6049500108 -0.5281100273
H  0.7860400677 0.2885700166 1.1829500198
H  2.5568702221 -0.5091500282 -1.1867301464
H  2.9106900692 -0.8539300561 0.4961200356
H  2.6180701256 1.9279801846 -2.0479900837
H  3.2137403488 3.2167704105 -0.9935200810
H  1.6009801626 2.5543503761 -0.7414700985
H  3.4377202988 0.9964600801 1.9392501116
H  2.2011702061 1.9779901505 1.5541900396
H  5.2302803993 1.9682000875 -0.5726900101
H  4.7829804420 0.4905000627 -1.4259200096
H  5.4598603249 0.7723800540 1.4034701586
H  6.4363903999 0.1662800014 0.2564100027
