15

O  0.9696000814 -0.0959600061 0.6002800465
S  2.2712199688 0.0145900007 -0.0263100006
O  2.4302701950 0.2060400248 -1.4531000853
C  3.2132701874 1.2673801184 0.8292700052
C  4.5369300842 0.5979100466 1.1788301468
C  4.1900105476 -0.8358700871 1.5750601292
C  3.2771902084 -1.3736500740 0.4782300293
H  2.6618802547 1.5412501097 1.7335600853
H  3.3395001888 2.1412501335 0.1874100119
H  5.1950402260 0.5889800191 0.3014400005
H  5.0544900894 1.1297501326 1.9826201200
H  5.0845403671 -1.4554001093 1.6888401508
H  3.6589400768 -0.8335900903 2.5345499516
H  3.8565704823 -1.7007000446 -0.3899200559
H  2.6376101971 -2.1860601902 0.8296500444
