16

C  1.0400401354 0.0704500079 0.2221700102
C  2.3938703537 0.1130600050 -0.4949200451
C  2.4231600761 -0.8100600243 -1.7250001431
C  2.3671302795 -2.2294301987 -1.3466701508
N  2.3197503090 -3.3495001793 -1.0486500263
C  2.6900601387 1.5368901491 -0.9129000902
C  3.7568304539 2.2321403027 -0.4978800416
H  1.0290000439 0.7557200193 1.0774900913
H  0.8254500628 -0.9326000214 0.6051200628
H  0.2215300053 0.3574000299 -0.4478300214
H  3.1595802307 -0.2217600048 0.2186000198
H  3.3454101086 -0.6397500634 -2.2951800823
H  1.5899901390 -0.5756200552 -2.3991801739
H  1.9838501215 2.0185701847 -1.5883201361
H  4.4916901588 1.8078801632 0.1798500121
H  3.9160404205 3.2549102306 -0.8275100589
