19

C  0.8472600579 -0.7638400793 0.5117800236
C  2.3025901318 -0.8493201137 0.0805700049
C  2.9805202484 0.5190700293 0.1282300055
C  4.4425902367 0.4315200150 -0.3040500283
C  5.1416006088 1.7808401585 -0.2669300139
C  6.5902504921 1.7884801626 -0.6777500510
O  4.5778503418 2.8136401176 0.0916300043
H  0.3812500238 -1.7537500858 0.4733700454
H  0.2813600302 -0.0964000076 -0.1463500112
H  0.7627700567 -0.3883800209 1.5368701220
H  2.3530802727 -1.2551500797 -0.9362400770
H  2.8313601017 -1.5501201153 0.7367900610
H  2.9202404022 0.9259700179 1.1455399990
H  2.4443502426 1.2201200724 -0.5236100554
H  4.5060801506 0.0481800027 -1.3281600475
H  4.9886102676 -0.2484700084 0.3587500155
H  7.1786503792 1.2216200829 0.0472500026
H  6.9580407143 2.8179302216 -0.7105200291
H  6.6927804947 1.3494200706 -1.6734601259
