10

C  0.9164200425 0.0179900005 -0.0039400002
C  2.1168501377 0.0380400047 -0.0017400002
C  3.5437302589 0.0609700046 0.0008900000
C  4.2927904129 1.2172801495 0.0021100002
S  5.9524002075 0.7919901013 0.0052200002
N  5.7093405724 -0.8513700366 0.0049900003
C  4.3972206116 -1.0785400867 0.0026100001
H  -0.1487000138 -0.0001400000 -0.0058800005
H  3.9688701630 2.2479403019 0.0013800000
H  4.0765504837 -2.1125102043 0.0021600001
