12

O  2.5543901920 -1.6666702032 -0.0355300047
N  3.3340201378 -0.5535400510 -0.4342600405
C  3.5630502701 0.3826900125 0.5505000949
O  3.0061302185 0.3170800209 1.6465600729
C  4.4806103706 1.5200002193 0.1501599997
C  5.8095903397 1.0507200956 -0.2702800333
C  6.8991503716 0.6740000844 -0.6123400331
H  2.3302302361 -1.4459501505 0.8958401084
H  4.0078101158 -0.7226200104 -1.1750900745
H  4.5797300339 2.1966001987 1.0062700510
H  3.9970202446 2.0818202496 -0.6566600204
H  7.8692107201 0.3461399972 -0.9070600867
