15

C  1.0170800686 -0.0663900003 0.0028100002
C  2.5058801174 -0.0185400005 -0.0468900017
C  3.2465102673 -0.6253200173 -1.2161101103
N  3.1499502659 0.8249700665 -1.0491100550
C  4.3917703629 1.4567800760 -0.5748700500
C  5.2516403198 1.9031301737 -1.6903101206
N  5.9569602013 2.2519202232 -2.5445702076
H  0.6344700456 0.7507100701 0.6226400137
H  0.6871400476 -1.0114800930 0.4455700219
H  0.5641600490 0.0193400010 -0.9907500744
H  2.9494903088 -0.0944900066 0.9391800761
H  2.6740701199 -1.0399601460 -2.0380802155
H  4.1959505081 -1.1142200232 -1.0326400995
H  4.9777703285 0.7998700738 0.0826000050
H  4.1196103096 2.3322701454 0.0273900032
