14

C  0.9777000546 0.0215800013 0.0605600029
C  2.4676802158 0.0532800034 0.1365800053
C  3.2061903477 1.1365600824 -0.1562800109
S  4.9286699295 1.0635200739 -0.0477300063
N  5.4051704407 2.6486003399 0.2618500292
O  5.3362903595 0.3350000083 1.1326100826
O  5.4887905121 0.7666701078 -1.3468201160
H  0.6569300294 -0.7500700355 -0.6458100677
H  0.5594300032 0.9788700342 -0.2663300335
H  0.5593800545 -0.2159300148 1.0434800386
H  2.9545502663 -0.8684300780 0.4527600408
H  2.7711801529 2.0710902214 -0.4787000418
H  6.0597505569 2.9333803654 -0.4697900414
H  5.8442106247 2.6735403538 1.1848300695
