13

C  5.4340505600 -1.9233301878 -0.0024100002
C  4.6208305359 -1.0543401241 -0.0013200002
C  3.6341602802 0.0000000000 0.0000000000
C  4.4282903671 1.2662000656 0.1101500094
C  4.9287300110 1.9767602682 -1.1229001284
N  3.8241004944 2.5248003006 -0.3425700366
H  6.1606106758 -2.7030601501 -0.0046700002
H  2.9585201740 -0.0905600041 0.8567700386
H  3.0271203518 -0.0240000021 -0.9116000533
H  5.0066304207 1.3305201530 1.0254501104
H  4.6698904037 1.5783201456 -2.0970201492
H  5.8745303154 2.5016102791 -1.0699000359
H  4.1408500671 3.3063201904 0.2352000177
