15

C  1.3916100264 -0.2325300127 -0.6780300736
O  2.7883303165 0.0150300013 -0.5991200209
C  3.0632500648 1.2251400948 0.1047200039
C  4.5466504097 1.4068001509 0.1587300152
C  5.2717404366 2.0832202435 -0.9742400646
N  5.1162900925 2.7459003925 0.3192200363
H  1.2365800142 -1.1652901173 -1.2281500101
H  0.8870300651 0.5770600438 -1.2152600288
H  0.9644700885 -0.3436700404 0.3239300251
H  2.6697101593 1.1531101465 1.1246300936
H  2.5761601925 2.0650300980 -0.4040600359
H  5.0436105728 0.5981000662 0.6813400984
H  4.6914606094 2.4913802147 -1.7925200462
H  6.2645707130 1.7368900776 -1.2315801382
H  5.9873404503 2.7054502964 0.8520400524
