12

O  1.9547001123 -0.4280000329 -1.2869100571
C  2.4385499954 -0.0487100035 -0.0057900008
C  2.8870201111 1.3679100275 -0.0046800002
C  2.0675702095 2.4749903679 -0.1423300058
S  3.0182702541 3.8952603340 -0.0723100007
N  4.4677100182 3.1179502010 0.1363700181
C  4.2419204712 1.8073701859 0.1366100162
H  1.7071601152 -1.3657201529 -1.2284901142
H  3.2620601654 -0.7189900279 0.2634000182
H  1.6328901052 -0.1894200295 0.7232800722
H  0.9969800711 2.5143101215 -0.2838600278
H  5.1059103012 1.1641501188 0.2493700087
