17

C  2.9824702740 -1.2255501747 -0.5991200209
C  2.4430601597 0.0073900004 0.1142000109
C  3.4135801792 1.1933600903 0.0666500032
C  2.8830304146 2.3773903847 0.8381000757
C  2.7671201229 3.4405703545 0.0265300032
C  3.1957204342 3.0768203735 -1.2996201515
C  3.5754101276 1.7912900448 -1.3099400997
H  2.2846801281 -2.0610101223 -0.4841100574
H  3.9466204643 -1.5300301313 -0.1799800098
H  3.1124701500 -1.0448900461 -1.6701500416
H  2.2451701164 -0.2578500211 1.1607701778
H  1.4753100872 0.2786599994 -0.3278300166
H  4.3928704262 0.9039600492 0.4661200345
H  2.6423203945 2.3644402027 1.8907002211
H  2.4178702831 4.4231505394 0.3045600355
H  3.2094700336 3.7544603348 -2.1398901939
H  3.9549803734 1.2611701488 -2.1705701351
