13

C  3.0595602989 -1.1705001593 0.5134800076
O  2.3502299786 0.0371400043 0.2893800139
C  3.1416802406 1.1211800575 0.1641700119
N  2.5036401749 2.2710003853 -0.0467100032
N  3.4954402447 3.1705203056 -0.1329200119
C  4.7386302948 2.6255602837 0.0166900009
C  4.5403900146 1.2783300877 0.2138200104
H  2.3281600475 -1.9798901081 0.5996300578
H  3.6250503063 -1.1306300163 1.4509500265
H  3.7195103168 -1.4054300785 -0.3288200200
H  3.2489502430 4.1413502693 -0.2955400348
H  5.6312203407 3.2324903011 -0.0297300015
H  5.3027901649 0.5302600861 0.3693300188
