13

C  0.8970100880 -1.2557400465 0.3348500133
C  -0.4814900160 -1.5343801975 -0.1712000072
C  -1.4498000145 -0.6213000417 -0.2730200291
C  -1.2560200691 0.7445400357 0.2555200160
N  -0.2147200108 1.5036702156 0.3081100285
N  0.9707800746 1.1804200411 -0.3375400305
C  1.4735001326 -0.0117000006 -0.2809000313
H  1.5431602001 -2.0806901455 0.0087700011
H  0.9457600713 -1.2157801390 1.4256501198
H  -0.6967400312 -2.5577700138 -0.4711400270
H  -2.4461703300 -0.8743900657 -0.6175300479
H  -2.1753101349 1.1675101519 0.6970800757
H  2.4725401402 -0.1329500079 -0.7356200814
