12

O  2.7607202530 -1.0764001608 0.0109300008
C  2.1757402420 -0.0003100000 -0.0021900004
N  2.9115803242 1.1883900166 0.0027800002
C  2.3721401691 2.4601101875 -0.0105800014
C  3.3994202614 3.3785202503 -0.0002800000
C  4.6117506027 2.6530902386 0.0200900007
C  4.2866706848 1.3149701357 0.0215800013
H  1.0776300430 0.0884000063 -0.0180600006
H  1.2999900579 2.6048302650 -0.0263400022
H  3.2868602276 4.4555006027 -0.0067500002
H  5.6154503822 3.0592002869 0.0323900022
H  4.9113407135 0.4303300381 0.0343900025
