19

C  0.6960100532 0.3261200488 0.1308700144
C  2.0979902744 -0.2257700115 0.1762300134
C  2.1719102859 -1.6788500547 0.5544900894
C  3.1524503231 0.5653499961 -0.1065000072
C  4.6133704185 0.2123700231 -0.1103200093
C  5.3689804077 1.0443401337 0.8866300583
C  6.3611602783 1.8891401291 0.5722100139
H  0.6749899983 1.3918401003 -0.1208500117
H  0.2099100202 0.2064800262 1.1049101353
H  0.1037500128 -0.2050900161 -0.6215600371
H  1.5513300896 -2.2753601074 -0.1234000102
H  1.7995901108 -1.8203201294 1.5746600628
H  3.1808402538 -2.0929701328 0.5118200183
H  2.9561200142 1.6036400795 -0.3768600225
H  5.0022702217 0.3736200333 -1.1233501434
H  4.7915306091 -0.8404000401 0.1231500134
H  5.0814604759 0.9337700605 1.9302201271
H  6.6867904663 2.0298702717 -0.4534800351
H  6.8687105179 2.4592001438 1.3434101343
