17

C  1.1146301031 1.2008301020 -0.3186500072
C  -0.1814100146 1.5590901375 0.4012000561
C  -1.3816400766 0.8321101069 -0.1125500053
C  -1.5127900839 -0.4988700449 -0.1966200173
C  -0.5454400778 -1.5800001621 0.1843600273
C  0.9311301112 -1.3065301180 0.1578800231
C  1.6286802292 -0.1850100160 -0.0758500099
H  1.8849401474 1.9003500938 0.0316800028
H  1.0208301544 1.3643801212 -1.3992501497
H  -0.0887200013 1.3996100426 1.4827300310
H  -0.3572900295 2.6342003345 0.2677800059
H  -2.2237401009 1.4528700113 -0.4129600525
H  -2.4712803364 -0.8741600513 -0.5553800464
H  -0.7155600786 -2.4146702290 -0.5089300275
H  -0.8171900511 -1.9504101276 1.1801000834
H  1.5232400894 -2.2064301968 0.3324200213
H  2.7152101994 -0.2694300115 -0.0882100090
