15

C  4.4581604004 3.7007303238 1.4314601421
C  5.7183303833 3.6490004063 0.9859300852
O  6.2325205803 2.9529802799 -0.0701500103
C  5.3293004036 2.1413099766 -0.8244900703
C  6.0875105858 1.5392601490 -1.9606702328
C  6.8487405777 0.2513300180 -1.7992701530
O  5.5654406548 0.2953800261 -2.4432601929
H  4.2151403427 4.3139204979 2.2940101624
H  3.6419603825 3.1561400890 0.9729501009
H  6.5158505440 4.2075800896 1.4655301571
H  4.5185503960 2.7570800781 -1.2318201065
H  4.9063606262 1.3603200912 -0.1800600141
H  6.4316506386 2.2674503326 -2.6814403534
H  6.9055204391 -0.2020100206 -0.8179800510
H  7.7167906761 0.0893400088 -2.4251503944
