13

C  1.0000001192 0.0000000000 0.0000000000
C  2.4440002441 0.0000000000 0.0000000000
C  3.6341602802 0.0000000000 0.0000000000
C  5.0021600723 0.0000000000 0.0000000000
C  6.1923203468 0.0000000000 0.0000000000
C  7.6363205910 0.0000000000 0.0000000000
O  8.1291303635 1.3332800865 -0.0155100012
H  0.6059200764 1.0208500624 0.0116700009
H  0.6059200764 -0.5205400586 0.8782500625
H  0.6059200764 -0.5003100634 -0.8899201155
H  8.0361003876 -0.5211000443 -0.8752200603
H  8.0321702957 -0.4941000342 0.8926300406
H  7.7018504143 1.7808901072 -0.7644800544
