12

N  0.8821900487 -0.0220200010 0.2117000222
C  2.2406699657 -0.0039100004 0.0246600024
C  3.0368900299 1.0699700117 0.0816300064
C  4.5067105293 1.0244801044 -0.1208800077
O  5.1522803307 2.0669500828 -0.0707500055
C  5.2138605118 -0.2135900110 -0.3836400211
C  5.8095402718 -1.2340401411 -0.6011100411
H  0.3945900202 -0.7578300238 -0.2958600223
H  0.4226600230 0.8830300570 0.1358100176
H  2.6380000114 -0.9981600642 -0.1739500165
H  2.6419801712 2.0582301617 0.2902700305
H  6.3489303589 -2.1328999996 -0.7927500606
