13

O  2.2961001396 0.4998000264 1.5274701118
C  2.0417001247 0.9129000902 0.4002000093
C  3.0744702816 1.3246400356 -0.6182500124
C  4.4832000732 1.1429500580 -0.1446600109
C  5.2913603783 -0.0575700030 -0.5643200874
N  5.5684900284 1.2654401064 -1.1185801029
H  0.9945100546 1.0203701258 0.0691900030
H  2.8995103836 2.3807499409 -0.8481400609
H  2.8817501068 0.7461000085 -1.5297501087
H  4.6646103859 1.5811301470 0.8304600716
H  4.8574905396 -0.7745800614 -1.2505600452
H  6.0194602013 -0.4593000412 0.1296200156
H  6.4008903503 1.6710002422 -0.6833500862
