14

C  0.9771900773 -0.0140300011 -0.0081500011
C  2.4581201077 0.0691100061 -0.0002700000
C  3.3032102585 1.1638500690 0.0046400004
C  4.6176700592 0.6621500850 0.0112500014
O  5.7665305138 1.3482401371 0.0175700020
C  4.5677604675 -0.7049400806 0.0103100007
N  3.2446303368 -1.0617901087 0.0031700002
H  0.5280700326 0.9842301011 0.0005500001
H  0.6175800562 -0.5553700924 0.8726400733
H  0.6263900399 -0.5361300707 -0.9039900899
H  2.9916300774 2.1996500492 0.0034800004
H  5.5768904686 2.3019900322 0.0171200018
H  5.3504304886 -1.4503301382 0.0140200015
H  2.9002802372 -2.0132601261 0.0008300001
