20

C  2.7621502876 -0.9512000680 -1.0156700611
C  2.4506201744 0.0759700090 0.0666400045
C  3.0727801323 1.4738700390 -0.1557700038
C  2.5258100033 2.1402702332 -1.4284300804
N  2.6986901760 2.3505203724 0.9816300273
C  4.6210002899 1.4112000465 -0.2079300135
O  5.1656904221 2.7301201820 -0.1387400031
H  2.2789502144 -1.9031001329 -0.7723000646
H  3.8364400864 -1.1381101608 -1.0947901011
H  2.3892002106 -0.6334500313 -1.9928801060
H  2.7947101593 -0.3302000165 1.0274400711
H  1.3589601517 0.1674199998 0.1467000097
H  2.8568301201 1.6137200594 -2.3301503658
H  2.8674902916 3.1781003475 -1.5209100246
H  1.4294301271 2.1534802914 -1.4322501421
H  2.9657502174 1.9005800486 1.8585700989
H  1.6822301149 2.4392902851 1.0180200338
H  4.9806404114 0.9473600388 -1.1316301823
H  5.0210499763 0.8456000090 0.6409500241
H  4.5208101273 3.2266702652 0.4084200263
