15

C  1.2924799919 -0.3716000319 -0.1136200055
C  2.7725203037 -0.1073000059 0.1060800105
C  3.1409902573 1.3249601126 -0.2563900054
S  4.8819503784 1.6312201023 0.0132900011
O  4.9210500717 3.1566002369 -0.5142500401
O  5.1671700478 1.6427401304 1.4285501242
O  5.6659407616 0.8749700785 -0.9362000823
H  1.0498501062 -1.4072700739 0.1440500021
H  1.0156800747 -0.2080900222 -1.1600700617
H  0.6798500419 0.2863300443 0.5110400319
H  3.3591701984 -0.8089900613 -0.4982100427
H  3.0248000622 -0.3064200282 1.1540900469
H  2.5868802071 2.0397500992 0.3603100181
H  2.9356603622 1.5242301226 -1.3130301237
H  5.6148905754 3.2166602612 -1.2061500549
