15

C  1.0117000341 0.1386800110 -0.1459600180
O  2.4308099747 0.0393300056 -0.1693300158
C  3.1058900356 1.2268500328 -0.1053000018
C  4.4230804443 1.3371801376 -0.2472300231
C  4.8198704720 2.7556200027 -0.1101300046
O  3.6052901745 3.4911801815 0.1344600022
C  2.5016403198 2.5613501072 0.1446300000
H  0.6009800434 -0.8724100590 -0.2236900181
H  0.6462200284 0.7191500068 -0.9992600679
H  0.6641500592 0.5731700063 0.7968500853
H  5.1027007103 0.5211900473 -0.4314900339
H  5.4981503487 2.9089102745 0.7341700792
H  5.2834701538 3.1387302876 -1.0238000154
H  1.8002101183 2.8581001759 -0.6403000951
H  2.0137002468 2.6208102703 1.1216500998
