19

C  2.4288303852 -0.8938800693 -1.1335600615
C  3.6281502247 -0.3142600358 -0.3990400136
C  3.2514803410 0.9136400819 0.3797300160
C  3.7829103470 2.1265602112 0.1591300070
C  3.4598400593 3.3469903469 0.8818300962
C  2.4330503941 3.3117601871 1.9814901352
C  4.0779204369 4.4964399338 0.5614000559
H  2.7208902836 -1.7951401472 -1.6816202402
H  2.0217702389 -0.1761800051 -1.8535301685
H  1.6304501295 -1.1671600342 -0.4356200397
H  4.4225201607 -0.0955500081 -1.1224600077
H  4.0261101723 -1.0626400709 0.2957800329
H  2.5110201836 0.7650800943 1.1619100571
H  4.5268602371 2.2241101265 -0.6321400404
H  1.4613201618 2.9858601093 1.5951101780
H  2.2858803272 4.2979702950 2.4364202023
H  2.7433803082 2.6301202774 2.7811503410
H  4.8219304085 4.5529003143 -0.2269600183
H  3.8558402061 5.4224205017 1.0835201740
