19

C  1.1778800488 1.0662400723 -0.8709500432
N  2.4188101292 1.2532401085 -0.1320600063
C  3.5021502972 1.6543600559 -1.0245100260
C  4.7284402847 1.8479501009 -0.1866300106
C  5.7091307640 0.7211200595 0.0148500009
C  6.0830602646 1.8969202042 -0.8422300816
N  7.0849103928 2.8420403004 -0.3583600521
H  0.3765400350 0.8004400134 -0.1752700210
H  1.2672400475 0.2607400119 -1.6067000628
H  0.8774900436 1.9864401817 -1.3820101023
H  2.6730501652 0.3783000112 0.3258300126
H  3.2602300644 2.6020603180 -1.5190300941
H  3.6697802544 0.8957400322 -1.7987401485
H  4.5475106239 2.5237503052 0.6428300738
H  5.5307803154 -0.2251100242 -0.4851100445
H  6.1717505455 0.6175100803 0.9891800880
H  6.1264505386 1.7165101767 -1.9147300720
H  7.0500602722 2.9323902130 0.6569600701
H  6.9017305374 3.7763104439 -0.7234900594
