14

C  0.9875100851 -0.0387200005 -0.0080000004
C  2.4675600529 0.0564400032 -0.0002100000
C  3.3024902344 1.1548601389 0.0034000003
C  4.6349005699 0.6779300570 0.0106300004
C  4.5872306824 -0.6970100403 0.0112200016
O  5.5788502693 -1.5795001984 0.0169500019
N  3.2647302151 -1.0647300482 0.0044800001
H  0.5301900506 0.9557500482 0.0007300000
H  0.6322200298 -0.5830000639 0.8728300333
H  0.6407500505 -0.5637300611 -0.9037801027
H  2.9884600639 2.1910402775 0.0011000001
H  5.5399003029 1.2712000608 0.0149700018
H  5.2171607018 -2.4798700809 0.0157300010
H  2.9200503826 -2.0132203102 0.0031700002
