14

C  1.0103400946 -0.2516000271 0.0510500036
N  2.4573900700 -0.0535600036 0.0296700019
C  2.7903604507 1.1891200542 0.0002300000
N  4.0815305710 1.6177901030 -0.0235800017
C  4.5646605492 2.8956201077 -0.0555500016
C  5.8495106697 3.2598102093 -0.0779100060
H  0.7972700596 -1.3231700659 0.1106100082
H  0.5441899896 0.1310600042 -0.8630800247
H  0.5538499951 0.2272100151 0.9240000844
H  2.0499601364 2.0103700161 -0.0085100010
H  4.7694802284 0.8719100356 -0.0160700008
H  3.7887303829 3.6591203213 -0.0623800047
H  6.6512804031 2.5303201675 -0.0720900074
H  6.1251707077 4.3092503548 -0.1027500033
