15

C  1.0252900124 0.0747500062 0.1030000150
C  2.3532502651 0.0223500021 -0.0477800034
C  3.1508102417 -1.2505301237 -0.0424400046
C  4.1508903503 -1.2224100828 -1.1867500544
O  4.9255299568 -0.0263200011 -1.1127301455
C  4.0656204224 1.1110200882 -1.2040201426
O  3.0759603977 1.1943101883 -0.1716500074
H  0.5085200667 1.0290601254 0.1145500094
H  0.4289700389 -0.8224300742 0.2263300121
H  2.5119502544 -2.1364500523 -0.1207100078
H  3.6898002625 -1.3071600199 0.9111300707
H  4.8355207443 -2.0731801987 -1.1115000248
H  3.6550202370 -1.2799000740 -2.1637103558
H  4.6940002441 2.0032901764 -1.1248800755
H  3.5798501968 1.1399000883 -2.1881000996
