16

O  1.0399900675 0.3160400391 -0.3933500350
C  2.4122800827 0.0628600046 -0.0519600064
C  3.1066303253 -0.9586300254 -0.8973600864
C  3.4381904602 0.5010800362 -1.0704901218
N  4.7348504066 1.0027900934 -0.5804200768
C  5.7606801987 0.8401300311 -1.6079701185
C  5.1722002029 2.1904203892 -1.3075600863
H  0.7435500622 1.1585299969 -0.0073200008
H  2.6870300770 0.1027100012 0.9974901080
H  2.5351903439 -1.4437700510 -1.6789801121
H  3.8356902599 -1.5981600285 -0.4160400331
H  3.0352702141 0.9687100649 -1.9679400921
H  5.4940800667 0.3493800461 -2.5365402699
H  6.7571702003 0.6240700483 -1.2421600819
H  5.7736101151 2.8908600807 -0.7409700751
H  4.5090403557 2.6431303024 -2.0335900784
