17

C  4.4055504799 -1.7234400511 -1.3531801701
C  3.9992704391 -0.9670800567 -0.3271200359
C  2.9123902321 0.0666100010 -0.4244700372
C  3.3706102371 1.4512001276 0.0372300036
O  2.2561101913 2.3416001797 -0.0742000043
C  2.4383101463 3.6348102093 0.3248400390
C  3.5333402157 4.2200002670 0.8214200735
H  5.1852602959 -2.4670903683 -1.2213801146
H  3.9677202702 -1.6291601658 -2.3416602612
H  4.4573607445 -1.1120201349 0.6497700810
H  2.0626401901 -0.2541400194 0.1913800240
H  2.5248401165 0.1384400129 -1.4486100674
H  4.1941800117 1.8042201996 -0.5959400535
H  3.7049002647 1.4010400772 1.0810101032
H  1.5130001307 4.1829905510 0.1821700186
H  4.4687900543 3.6960203648 0.9732100964
H  3.5071904659 5.2709507942 1.0930200815
