17

N  2.7561900616 -0.3292900026 1.8443701267
C  2.5795602798 -0.3238700330 0.3977300525
C  3.1463801861 0.9478601217 -0.2367200106
C  4.6305603981 1.1927801371 0.0362900011
C  5.4713306427 0.0609300025 -0.4818300307
N  6.0148406029 0.1242800057 -1.6547800303
O  6.7036409378 -1.0707000494 -1.8962801695
H  2.3308100700 -1.1719900370 2.2313501835
H  2.2446801662 0.4532500505 2.2534401417
H  1.5113801956 -0.3975200355 0.1648800075
H  3.0612502098 -1.2102500200 -0.0271600038
H  2.5776102543 1.8163402081 0.1196300089
H  2.9838702679 0.8911900520 -1.3204600811
H  4.8278603554 1.3079100847 1.1066300869
H  4.9391403198 2.1196501255 -0.4606200457
H  5.5639305115 -0.8342300653 0.1588500142
H  7.0712103844 -0.9215900898 -2.7877001762
