20

C  2.8825001717 -1.0175100565 -0.3664100468
C  2.3459203243 0.2765800059 0.2272100151
C  3.4036903381 1.3367301226 0.2753700316
N  3.5704402924 2.2619802952 -0.8413600326
C  3.0879902840 2.8199400902 0.4296700358
C  1.6623901129 3.2998104095 0.4990600348
C  4.0628604889 3.6560802460 1.2176100016
H  2.0999500751 -1.7825301886 -0.3840600252
H  3.7227401733 -1.4017200470 0.2217400074
H  3.2343702316 -0.8622201085 -1.3918401003
H  1.9935001135 0.0841200128 1.2466400862
H  1.4771201611 0.5939400792 -0.3591900170
H  4.3195204735 0.9764800668 0.7342400551
H  2.8114902973 2.1707901955 -1.5181100368
H  1.0080500841 2.8007800579 -0.2229800224
H  1.6109501123 4.3743805885 0.2919400334
H  1.2559500933 3.1266903877 1.5011200905
H  5.0913305283 3.2892603874 1.1269601583
H  3.7961704731 3.6465303898 2.2797901630
H  4.0468401909 4.6942400932 0.8687100410
