15

C  0.8735901117 0.1032600105 -0.0097400006
C  2.3625202179 0.0380300023 -0.0002800000
C  3.2686202526 1.0787100792 0.0084400009
C  4.6301403046 0.6333300471 0.0157900024
C  5.8198404312 1.5319801569 0.0261400025
C  4.6923003197 -0.7469600439 0.0125200003
S  3.1493201256 -1.4796301126 0.0003800000
H  0.5284600258 1.1416699886 -0.0019700001
H  0.4578100443 -0.3946000338 0.8718400598
H  0.4703000486 -0.3773400187 -0.9065700173
H  2.9693901539 2.1204202175 0.0094800014
H  5.5229902267 2.5852003098 0.0112900008
H  6.4474906921 1.3439000845 -0.8507800698
H  6.4188704491 1.3604501486 0.9261000752
H  5.5778603554 -1.3677000999 0.0166100003
