15

C  0.7547301054 0.2158900052 -0.0754199997
C  2.2202901840 0.0065500005 -0.2694200277
C  3.1603102684 0.8735600710 0.1367200166
N  4.5209503174 0.7153201103 -0.0263000019
N  5.0052905083 -0.4475300312 -0.6692800522
C  5.4593806267 1.6526200771 0.4081200361
O  6.6765503883 1.5516201258 0.2787100375
H  0.3358400464 -0.6049900055 0.5150200129
H  0.2490800172 0.2342500240 -1.0461200476
H  0.5342400074 1.1550301313 0.4418000281
H  2.5053701401 -0.9117301106 -0.7771800756
H  2.8590900898 1.7896201611 0.6389400959
H  5.4911704063 -0.9919101000 0.0477700047
H  5.7605004311 -0.1389100105 -1.2904300690
H  4.9958801270 2.5266001225 0.8955800533
