21

C  1.3451300859 -0.2338700294 -0.1153600067
N  2.7551503181 0.1282200068 -0.1101400107
C  3.0473401546 1.5823600292 -0.0406200029
C  2.5258202553 2.3108601570 -1.2960799932
C  2.4440603256 2.2328600883 1.2165801525
C  4.6035704613 1.7484700680 0.0340900049
N  5.3264803886 1.0037300587 -1.0104801655
H  1.2611100674 -1.3245600462 -0.1666600108
H  0.8147400618 0.1707300097 -0.9819300771
H  0.8358700871 0.0766200051 0.8010200858
H  3.1775803566 -0.2148500085 -0.9755100608
H  2.8809602261 1.8365501165 -2.2180302143
H  2.8644201756 3.3535203934 -1.3110700846
H  1.4310801029 2.3301203251 -1.3310000896
H  2.7450301647 1.6973801851 2.1245603561
H  1.3494400978 2.2548701763 1.1844900846
H  2.7826902866 3.2707202435 1.3194100857
H  4.9695005417 1.4008400440 1.0086300373
H  4.8703904152 2.8089401722 -0.0473700017
H  5.2139801979 0.0101200007 -0.8032000661
H  6.3238806725 1.1874700785 -0.9065700173
