18

C  2.1038701534 4.3313207626 -0.5300100446
C  3.2067902088 3.6138103008 0.2212400138
O  3.8688602448 2.7297000885 -0.6801400185
C  4.9299702644 1.9847501516 -0.0500600003
C  5.9876303673 1.4719800949 -0.9860500693
C  6.2978105545 2.6204202175 -0.0736000091
N  7.2247405052 2.4280202389 1.0421800613
H  1.5761101246 5.0293803215 0.1254200041
H  1.3837201595 3.6131000519 -0.9347600937
H  2.5140101910 4.8852505684 -1.3804601431
H  2.7836601734 3.0403101444 1.0534400940
H  3.9255301952 4.3404903412 0.6160800457
H  4.6673803329 1.3377301693 0.7807500362
H  5.8755002022 1.6844900846 -2.0430102348
H  6.4262905121 0.5046200156 -0.7767700553
H  6.3736104965 3.5973203182 -0.5472900271
H  7.1463608742 1.4937000275 1.4413901567
H  7.0167903900 3.0793502331 1.7984501123
