18

N  0.8461300731 0.2737100124 0.2189000249
C  2.2775402069 -0.0371900015 0.1895500273
C  3.1176702976 1.2342801094 0.0101600010
C  4.6062803268 0.9434900880 -0.0201000012
C  5.2539405823 0.8588600755 -1.1952600479
C  5.3571801186 0.7886200547 1.2186000347
C  4.8702402115 0.8603100777 2.4644002914
H  0.3180299997 -0.5969000459 0.2762000263
H  0.5751100779 0.7130700350 -0.6604500413
H  2.4710199833 -0.7350400090 -0.6337400079
H  2.5405600071 -0.5491700172 1.1210800409
H  2.8868203163 1.9662001133 0.7941001058
H  2.8214001656 1.7225201130 -0.9290400743
H  4.7308502197 0.9794700742 -2.1385800838
H  6.3207406998 0.6649500728 -1.2565301657
H  6.4256906509 0.6002100706 1.1148201227
H  3.8246803284 1.0459800959 2.6834702492
H  5.5310702324 0.7327600121 3.3164203167
