13

C  0.3918300271 -1.0040000677 -0.1186600104
C  1.7987301350 -0.5054700375 0.1419400126
O  1.8355300426 0.9001700282 -0.1106800064
N  3.1388001442 1.3621600866 0.1319500208
C  3.1712901592 2.6290302277 -0.0944500044
C  4.4607706070 3.2289204597 0.1194500029
N  5.4865403175 3.7520003319 0.2810200453
H  0.3187099993 -2.0796601772 0.0643000007
H  0.0960400105 -0.8003301024 -1.1531200409
H  -0.3263100088 -0.4860300422 0.5256000161
H  2.5070102215 -1.0144001245 -0.5211900473
H  2.0785300732 -0.6967400312 1.1838300228
H  2.3254802227 3.2515501976 -0.4224000275
