14

C  0.9169500470 -0.5459800363 0.2183500230
C  2.3336102962 0.0133400010 0.1530700177
C  2.3842000961 1.5004200935 -0.1903500259
O  1.7398800850 1.7343101501 -1.4362701178
C  1.7794902325 2.3428502083 0.9252100587
O  0.8485500216 3.1229100227 0.7341200113
H  0.9460900426 -1.6174201965 0.4443400204
H  0.3918900192 -0.4196200371 -0.7345600128
H  0.3302100301 -0.0549100041 1.0017801523
H  2.8782200813 -0.5463400483 -0.6162500381
H  2.8346703053 -0.1693800092 1.1097401381
H  3.4277601242 1.8167301416 -0.2947400212
H  1.0316500664 2.3884701729 -1.2634301186
H  2.2478103638 2.2370700836 1.9176701307
