16

C  1.0737000704 -0.1473000199 -0.3600400388
C  2.4025201797 0.0045700003 -0.3226300180
C  3.0906503201 1.2606999874 -0.1987300068
C  4.4170103073 1.4057199955 -0.1406000108
C  4.7860107422 2.8356201649 0.0044800001
N  3.5313301086 3.5943102837 -0.1426900178
C  2.4357502460 2.6003901958 -0.1003700122
H  0.6385000944 -1.1374201775 -0.4535400271
H  0.3855100274 0.6881500483 -0.2967300415
H  3.0246601105 -0.8868501186 -0.3873400092
H  5.1429405212 0.6066800952 -0.1700400114
H  5.2256402969 3.0227401257 0.9892300963
H  5.5056600571 3.1373803616 -0.7632100582
H  3.5294203758 4.0107002258 -1.0726701021
H  1.7450801134 2.7791502476 -0.9313800931
H  1.8877601624 2.7009902000 0.8425700665
