13

N  1.0218800306 -0.0734300092 -0.0978400111
C  2.4830303192 -0.0101300012 -0.0215600003
C  3.2871203423 -0.7106500864 -1.0759000778
C  3.2497100830 0.7944400311 -1.0435700417
C  4.4257702827 1.5022001266 -0.6273900270
C  5.4103007317 2.0968902111 -0.2843900025
H  0.6043800712 0.6938100457 0.4291200340
H  0.6776500344 -0.9307700992 0.3340100348
H  2.8834302425 -0.0386200026 0.9902601242
H  2.7618701458 -1.2056100368 -1.8845402002
H  4.1937904358 -1.2174701691 -0.7666200399
H  2.6687700748 1.2790501118 -1.8230700493
H  6.2858004570 2.6251502037 0.0171700008
