17

C  1.0297200680 -0.1212800071 -0.0850400031
C  2.5191001892 0.0832400024 -0.3422800303
C  2.9549002647 -0.5825100541 -1.6223900318
C  3.8786103725 -1.5499200821 -1.6973801851
C  2.8302402496 1.5770300627 -0.4398900568
C  3.9270901680 2.0969102383 0.4533400238
O  2.2357201576 2.3273401260 -1.2157700062
H  0.7223300338 0.3975200355 0.8291400671
H  0.7943800688 -1.1846799850 0.0328400023
H  0.4170300066 0.2712600231 -0.9054000378
H  3.0729701519 -0.3283600211 0.5100200176
H  2.4807701111 -0.2350300252 -2.5408501625
H  4.3837099075 -1.9344301224 -0.8167600632
H  4.1459903717 -1.9842101336 -2.6561601162
H  3.6672604084 1.9091200829 1.4975900650
H  4.0403103828 3.1746201515 0.3082200289
H  4.8694605827 1.6040900946 0.2025000155
