13

N  0.9778700471 -0.0536900051 0.0852000043
C  2.3164601326 0.0496500023 0.0373100005
C  3.1432902813 1.1446001530 0.0113600008
O  2.6936502457 2.4087600708 0.0164600015
C  4.4808702469 0.7000700831 -0.0206400007
C  4.4364705086 -0.6791700125 -0.0172200017
N  3.1160101891 -1.0618700981 0.0156500004
H  0.4270600379 0.7970600724 -0.0242900010
H  0.4693600535 -0.9081701040 -0.1091200113
H  3.4471602440 3.0208704472 0.0091600008
H  5.3798303604 1.3011300564 -0.0419200063
H  5.2238903046 -1.4207201004 -0.0318000019
H  2.7804503441 -2.0126502514 0.0361900032
