18

C  2.2359302044 -1.0362501144 -0.5205300450
O  3.4269902706 -0.3328200281 -0.1922300160
C  3.2506902218 1.0871100426 -0.3198400140
C  4.5822801590 1.8016601801 0.0151300011
N  5.6729001999 1.2770801783 -0.8254200816
C  4.5849604607 3.3012504578 -0.1103500053
C  3.5706403255 4.1023502350 -0.4651700258
H  2.4227201939 -2.1059300900 -0.3958900571
H  1.9574601650 -0.8494100571 -1.5619401932
H  1.4204201698 -0.7425000668 0.1468900144
H  2.4665503502 1.4113701582 0.3748000264
H  2.9365503788 1.3154600859 -1.3459000587
H  4.8428206444 1.5531301498 1.0515401363
H  5.4193701744 1.4194501638 -1.8022001982
H  5.6543607712 0.2596300244 -0.7069500685
H  5.5386705399 3.7720203400 0.1301400065
H  2.5843102932 3.7299201488 -0.7173300385
H  3.7167003155 5.1781601906 -0.5118800402
