15

C  2.2138702869 -0.4928800464 -1.3418900967
N  2.3243401051 0.0886400044 -0.0081700003
C  3.1868402958 1.2801001072 -0.0652300045
C  2.3801803589 2.5298802853 -0.4491700232
O  2.8247504234 3.2183201313 0.7533301115
C  3.2516503334 1.9476901293 1.3176500797
H  1.5510700941 -1.3633701801 -1.3051800728
H  3.1881802082 -0.8267400265 -1.7143501043
H  1.7832300663 0.2168300152 -2.0558302402
H  2.6660802364 -0.6290000677 0.6314400434
H  4.1576204300 1.1645100117 -0.5568500757
H  1.2883801460 2.4450902939 -0.4663200080
H  2.7239100933 3.0396301746 -1.3536001444
H  4.2541203499 2.0171701908 1.7495801449
H  2.5455002785 1.6055301428 2.0818800926
