15

C  0.9996200800 0.0323100016 0.0285100006
C  2.4821500778 -0.0232500024 -0.0182900019
C  3.2617201805 -1.1031200886 -0.0884300023
C  4.6928801537 -0.7105800509 -0.0787000060
N  4.7010803223 0.7604100704 -0.1873500198
C  3.3139503002 1.2097800970 0.0437000021
H  0.5586300492 -0.9685400724 -0.0199900009
H  0.6129700541 0.6119000316 -0.8154700994
H  0.6641200185 0.5044800043 0.9569800496
H  2.9199502468 -2.1277101040 -0.1192700043
H  5.1727104187 -1.0220601559 0.8546701074
H  5.2338204384 -1.1584600210 -0.9183200598
H  4.9408407211 0.9941501021 -1.1497100592
H  3.0198302269 1.9345000982 -0.7224500179
H  3.2352802753 1.6836701632 1.0277100801
