15

C  1.1031200886 0.1096200123 0.0607000031
C  2.5962302685 0.0419600047 -0.0775100067
N  3.2238702774 -1.1008400917 0.0102200015
C  4.6617403030 -0.7356001139 -0.0897400081
C  4.7457304001 0.7772300243 -0.3145400286
N  3.3482301235 1.1790901423 -0.2997900248
O  3.0813102722 2.1841001511 0.6373900771
H  0.6679200530 -0.8893100619 -0.0273000021
H  0.6905400753 0.7506700754 -0.7231700420
H  0.8461400867 0.5266100168 1.0381700993
H  5.1698703766 -1.0164301395 0.8395100832
H  5.1293401718 -1.2842200994 -0.9122300744
H  5.1921405792 1.0049000978 -1.2892000675
H  5.3393802643 1.2656400204 0.4643100500
H  3.0366201401 2.9898502827 0.0886300057
