15

O  1.0333900452 0.0573400036 -0.1248200089
C  2.4433002472 -0.0283100009 0.0166200008
C  2.9835302830 1.0701501369 0.9177400470
O  4.2279300690 0.5901600718 1.4481500387
C  4.1113705635 -0.7916500568 1.4391000271
C  5.0537605286 -1.5629601479 1.9888801575
C  2.8837401867 -1.2806401253 0.7440900207
H  0.7435700297 -0.7151800394 -0.6400700808
H  2.9080700874 0.0298600011 -0.9753400683
H  2.3029901981 1.2987000942 1.7472602129
H  3.1570301056 1.9980401993 0.3630900383
H  4.9778203964 -2.6440300941 1.9824402332
H  5.9192304611 -1.1168200970 2.4678401947
H  3.0886502266 -2.0947902203 0.0424800031
H  2.1294600964 -1.6172801256 1.4627600908
