18

C  0.9229300618 -0.0812100098 -0.0354400016
C  2.4478600025 -0.0275100023 -0.0538100041
N  2.9877002239 -0.8076600432 -1.1896301508
C  3.0203201771 1.4232400656 -0.0617700033
O  4.4477500916 1.3242301941 -0.0557400063
C  2.5763900280 2.2776203156 -1.2282401323
C  3.3660702705 2.8377902508 -2.1555402279
H  0.5275200009 0.5001900792 0.8037300706
H  0.5737500787 -1.1135401726 0.0840200111
H  0.4839700460 0.3094100356 -0.9591000676
H  2.8198702335 -0.5198700428 0.8532900810
H  2.6864402294 -0.3697600365 -2.0631999969
H  2.5680501461 -1.7378101349 -1.1876300573
H  2.7284703255 1.9309201241 0.8649200201
H  4.6314406395 0.5393400192 -0.6114900708
H  1.5068000555 2.4697000980 -1.2925400734
H  4.4449701309 2.7119603157 -2.1352102757
H  2.9508101940 3.4522202015 -2.9478502274
