18

C  0.9779300690 0.0063100006 -0.0257200003
C  2.5173602104 -0.0000500000 0.0043500001
N  2.9339601994 0.0070500006 1.4120601416
C  3.0682504177 -1.2242000103 -0.7689300179
C  3.3342304230 -0.6722600460 -2.1349902153
C  3.3392701149 0.6655500531 -2.1341903210
C  3.0768702030 1.2207500935 -0.7675700188
H  0.5931000113 0.0118100010 -1.0520800352
H  0.5748500228 0.8914600611 0.4809800386
H  0.5670199990 -0.8794400692 0.4739900529
H  3.9524602890 -0.0081900004 1.4640702009
H  2.6165502071 -0.8483300805 1.8667901754
H  2.3509900570 -2.0511600971 -0.8002700210
H  4.0081205368 -1.5987402201 -0.3458900154
H  3.5338103771 -1.2882301807 -3.0006601810
H  3.5424802303 1.2822000980 -2.9981102943
H  4.0195503235 1.5887700319 -0.3454200029
H  2.3653101921 2.0527601242 -0.7998800278
