17

C  3.4294903278 -0.3749200106 -1.5220001936
C  2.9666800499 0.1602500081 -0.1740500182
C  3.2761001587 1.6235301495 0.0003900000
C  2.3121900558 2.5535302162 0.1095900089
C  4.7025103569 2.0828001499 0.0695000067
N  5.0775103569 3.3416903019 -0.2918400466
N  5.6756305695 1.3180400133 0.4524400234
H  3.1486701965 -1.4285300970 -1.6253401041
H  4.5168805122 -0.3081300259 -1.6335000992
H  2.9681501389 0.1792000234 -2.3475501537
H  3.4183402061 -0.4226400256 0.6357700229
H  1.8859201670 -0.0089800004 -0.0929500088
H  1.2618701458 2.2826900482 0.0739600062
H  2.5363802910 3.6039001942 0.2688800097
H  4.5744299889 3.7352001667 -1.0766400099
H  6.0848608017 3.3948702812 -0.4006500244
H  5.3348402977 0.3976500332 0.7346700430
