17

C  3.9713001251 -0.2995500267 2.2567701340
C  3.2716703415 -0.4472000301 0.9318200946
C  2.5210602283 -1.5317600965 0.6722000837
C  3.4110803604 0.5973100662 -0.0750600025
C  4.1448602676 1.7146600485 0.0489700064
C  4.2423005104 2.7121701241 -0.9930300713
C  4.9863305092 3.8172504902 -0.8719800711
H  3.6270101070 0.5998000503 2.7783000469
H  5.0560102463 -0.2356200218 2.1177301407
H  3.7796404362 -1.1511200666 2.9185302258
H  2.4016401768 -2.3242001534 1.4050000906
H  2.0052402020 -1.6662800312 -0.2734700143
H  2.8642301559 0.4350200593 -1.0038100481
H  4.7067303658 1.9113302231 0.9583900571
H  3.6834504604 2.5482201576 -1.9120301008
H  5.5647702217 4.0299201012 0.0222800002
H  5.0338702202 4.5422506332 -1.6780701876
