14

C  0.9771100879 -0.0069900006 0.0535100028
C  2.4909100533 -0.0222900007 0.0922600105
C  3.1024000645 1.1165801287 0.8819900751
O  4.3274207115 0.5675700307 1.3887600899
C  4.2127103806 -0.7940100431 1.3647000790
O  5.0532202721 -1.5739501715 1.7762401104
N  3.0323302746 -1.1535201073 0.7693500519
H  0.5966700315 -0.8739300370 -0.4972800314
H  0.6097300649 0.8993300796 -0.4381800294
H  0.5500600934 -0.0476900041 1.0615000725
H  2.8969001770 -0.0344200023 -0.9266800880
H  2.4912102222 1.4310700893 1.7352701426
H  3.3156902790 1.9870002270 0.2546400130
H  2.9460101128 -2.1135902405 0.4620900452
