14

C  1.1180100441 -0.8124700785 0.6988700628
C  2.3511002064 -0.0379900038 0.2694300115
C  2.0526802540 1.4250800610 0.0052300002
O  0.9471300244 1.9315801859 0.1548800021
N  3.1637802124 2.1227300167 -0.4132700264
C  3.1525301933 3.4501602650 -0.7331000566
O  4.1517300606 4.0389604568 -1.1263300180
H  1.3700101376 -1.8623601198 0.8782800436
H  0.3415600359 -0.7737500668 -0.0723300055
H  0.6953600645 -0.3997000158 1.6209801435
H  2.7600901127 -0.4815800488 -0.6453600526
H  3.1139903069 -0.1006500125 1.0540701151
H  4.0537605286 1.6591000557 -0.5264000297
H  2.1737401485 3.9430403709 -0.6105901003
