14

C  0.8318400979 0.0977900103 0.1579700112
C  2.3165202141 -0.0065100007 0.0123800011
C  3.1102402210 1.0528900623 -0.2017400265
C  4.5905804634 0.9916601181 -0.3524000347
C  5.2960305214 -0.3359100223 -0.2708100080
O  5.2066903114 2.0396602154 -0.5415200591
H  0.3392500281 -0.5009900331 -0.6143500805
H  0.4772200286 1.1293301582 0.0680800080
H  0.5261100531 -0.2842099965 1.1368399858
H  2.7243103981 -1.0103200674 0.0917800069
H  2.7019002438 2.0567500591 -0.2804300189
H  4.9397406578 -1.0013800859 -1.0614100695
H  5.1407804489 -0.7850800753 0.7134600282
H  6.3704304695 -0.1826600134 -0.4117400050
