7

C  0.9777100682 -0.0035800003 -0.0000000000
C  2.3160502911 0.0227300022 0.0000000000
C  3.0556902885 1.2369600534 0.0000000000
N  3.6631703377 2.2248001099 0.0000000000
H  0.4412700534 -0.9470000863 -0.0000000000
H  0.3857500553 0.9089200497 -0.0000000000
H  2.8822901249 -0.9013000131 0.0000000000
