15

C  1.9010301828 -0.8877300620 -1.0256500244
C  1.7484101057 0.0884800032 0.1331800073
C  2.6758203506 1.2703301907 0.0052600005
C  2.2508902550 2.5339701176 -0.1251700073
O  4.0563702583 0.9989100695 -0.0599900074
C  4.6154503822 0.5478700399 1.1018700600
O  4.0792403221 0.3689700365 2.1849503517
H  1.1930000782 -1.7154501677 -0.9166200757
H  2.9098000526 -1.3118500710 -1.0596901178
H  1.7032301426 -0.3970400393 -1.9841401577
H  1.9283101559 -0.4364900291 1.0775001049
H  0.7047900558 0.4268000424 0.1675399989
H  1.1947801113 2.7820000648 -0.1106700078
H  2.9551103115 3.3502602577 -0.2463500202
H  5.6853504181 0.3625900447 0.9140900970
