19

C  1.3852201700 -0.5009400249 1.7702301741
C  1.8260201216 -0.8770000935 0.3603500128
C  2.2927203178 -2.3286399841 0.3235599995
O  0.6969500184 -0.6855000854 -0.4976600409
C  1.0435000658 -0.6092800498 -1.8864902258
C  -0.2428000122 -0.4034800529 -2.6812603474
O  -0.8727600574 0.8098500371 -2.2750003338
H  1.0740799904 0.5499100685 1.8036201000
H  2.1928100586 -0.6450200677 2.4948301315
H  0.5188300610 -1.0951300859 2.0851101875
H  2.6421101093 -0.2089800090 0.0611200072
H  1.4489600658 -3.0159502029 0.4575300217
H  3.0390000343 -2.5290300846 1.0998501778
H  2.7470400333 -2.5704803467 -0.6424700618
H  1.5324100256 -1.5316500664 -2.2124102116
H  1.7158201933 0.2428900152 -2.0350501537
H  -0.9482100606 -1.2194201946 -2.4986002445
H  -0.0345300026 -0.3442500234 -3.7531204224
H  -0.8853600621 0.7738000751 -1.2987600565
