10

N  0.8667900562 0.0413500033 -0.0257700030
C  2.0271301270 0.0340800025 -0.0154600013
C  3.4590804577 0.0236300007 -0.0027300003
C  4.2183403969 1.1741101742 0.0045000003
S  5.8978004456 0.8367600441 0.0193100013
C  5.6151804924 -0.8514100909 0.0161000006
C  4.2696900368 -1.1509701014 0.0039900001
H  3.8763000965 2.2010502815 0.0018800001
H  6.4487504959 -1.5412001610 0.0232300013
H  3.8891003132 -2.1660602093 0.0001800000
