19

C  0.9746500850 -0.0141800009 0.1087600142
C  2.4868302345 0.0112700006 0.0249000005
C  3.2152304649 1.0669300556 0.8931400776
C  4.3126001358 0.0014100001 1.1718200445
C  4.8073105812 -0.0362700000 2.6085002422
O  5.4612207413 0.0475500040 0.2942600250
C  3.2479703426 -1.0767999887 0.8222500682
H  0.5745500326 -0.8790200949 -0.4302600324
H  0.5496100187 0.8883301020 -0.3422100246
H  0.6271300316 -0.0707400069 1.1454001665
H  2.8111903667 0.0518100038 -1.0247200727
H  2.6585302353 1.3867800236 1.7823500633
H  3.5462903976 1.9581801891 0.3520600200
H  3.9780201912 -0.0700800121 3.3230102062
H  5.4074206352 0.8514500856 2.8356502056
H  5.4325103760 -0.9188900590 2.7808401585
H  5.1049304008 0.0657200068 -0.6094800830
H  3.6058201790 -1.9198702574 0.2240200192
H  2.7029001713 -1.4713201523 1.6885701418
