15

O  2.3429701328 -0.3873800337 -0.1501000077
C  2.2132601738 0.8567500710 -0.8262300491
C  0.7558800578 1.1431500912 -1.1638901234
O  -0.1337900013 0.2999200225 -1.0511801243
C  2.7996602058 1.9242701530 0.0475500040
C  4.2600507736 2.2860102654 -0.0690000057
C  3.2089803219 3.2616002560 -0.5204100013
H  1.5301800966 -0.8934300542 -0.3520800173
H  2.7528502941 0.7806000710 -1.7764101028
H  0.5491001010 2.1382901669 -1.5912101269
H  2.3715202808 1.9085302353 1.0453300476
H  4.8594403267 1.7918300629 -0.8258000612
H  4.8009405136 2.5025303364 0.8457500339
H  3.0440802574 4.1429405212 0.0905100107
H  3.1116602421 3.4380900860 -1.5855001211
