15

C  0.8623100519 -0.2128000259 -0.1046900079
C  2.3603203297 -0.0271400027 0.0944100022
O  3.0567302704 -0.7687700391 -0.8994200230
C  2.7612001896 1.4120800495 -0.0219300017
C  3.3837001324 2.0924401283 0.9519301057
C  3.7339701653 3.4591102600 0.7908500433
C  4.0319504738 4.6144003868 0.6586900353
H  0.2872000039 0.3299100399 0.6523800492
H  0.6004600525 -1.2749900818 -0.0459600016
H  0.5462300777 0.1314900070 -1.0962600708
H  2.6464903355 -0.4404500425 1.0679800510
H  2.8756902218 -0.3568700254 -1.7604501247
H  2.5206801891 1.9179202318 -0.9541100860
H  3.6408803463 1.6124001741 1.8916901350
H  4.2977800369 5.6390905380 0.5409600735
