12

C  0.8893900514 0.2243400216 0.1615400016
C  2.2169501781 0.2177900225 -0.0553800017
C  2.9978001118 -1.0589400530 -0.2044500113
C  3.4851503372 -1.2674300671 -1.6237001419
O  3.0300602913 -0.7026600242 -2.6128401756
C  2.9310503006 1.4544401169 -0.1116400138
N  3.5326504707 2.4470002651 -0.1244000047
H  0.3363900185 1.1537300348 0.2760500312
H  0.3151600361 -0.6951300502 0.2164800167
H  2.4053101540 -1.9383902550 0.0716800019
H  3.8747403622 -1.0373100042 0.4530400336
H  4.2694106102 -2.0365002155 -1.7347100973
