19

C  1.7967101336 -0.8737000227 0.9425500631
C  3.2061002254 -0.3809500337 0.6356300712
C  3.3517103195 1.1503700018 0.7398200631
C  3.1127502918 1.6408702135 2.1487901211
C  2.1709601879 2.5329701900 2.4884500504
C  4.7345600128 1.5615701675 0.2879600227
C  4.9796500206 2.4098303318 -0.7208700776
H  1.7347601652 -1.9549400806 0.7828500867
H  1.0621000528 -0.3927100301 0.2891100347
H  1.5184801817 -0.6755200624 1.9819601774
H  3.4663603306 -0.7026200294 -0.3814300299
H  3.9116401672 -0.8819000721 1.3115900755
H  2.6087102890 1.6028000116 0.0684000030
H  3.7542703152 1.2368701696 2.9293601513
H  1.5069100857 2.9701702595 1.7497402430
H  2.0513701439 2.8472802639 3.5203201771
H  5.5788402557 1.1349200010 0.8264700174
H  4.1759800911 2.8694901466 -1.2873501778
H  5.9975404739 2.6671502590 -0.9944601059
