15

C  1.0409801006 -0.1211600080 0.3904400468
C  2.4710903168 -0.0341300033 -0.0832800046
C  3.0682504177 -1.1374000311 -0.5722200871
C  3.1500601768 1.2677700520 -0.0150800012
C  2.7410202026 2.2736501694 0.7767400742
C  4.2845401764 1.5193501711 -0.8525000215
C  5.2306804657 1.7415101528 -1.5585401058
H  0.4220600128 0.6368400455 -0.1023100093
H  0.9791800976 0.0184000023 1.4747701883
H  0.5923300385 -1.0950400829 0.1638100147
H  2.5469200611 -2.0883800983 -0.6226000190
H  4.0945105553 -1.1383001804 -0.9260300994
H  1.8930501938 2.1878402233 1.4452000856
H  3.2628502846 3.2262902260 0.7878800631
H  6.0667605400 1.9387900829 -2.1878602505
