15

C  0.9315500855 -0.0539800040 -0.0722400025
C  2.4520301819 0.0258500017 0.0177300014
C  3.0864100456 -0.7271300554 -1.0837800503
C  3.6019902229 -1.3460501432 -1.9746301174
C  2.8927102089 1.4941200018 0.0071800007
N  2.7392702103 2.2589402199 -1.1124900579
N  3.4164602757 2.0607500076 1.0488201380
H  0.4632700384 0.5164700150 0.7374000549
H  0.5886700749 -1.0921000242 0.0007600000
H  0.5590200424 0.3515200317 -1.0202400684
H  2.7648704052 -0.4202700257 0.9697000980
H  4.0611100197 -1.9005202055 -2.7612001896
H  2.8115801811 1.7771601677 -2.0012800694
H  3.2879602909 3.1114201546 -1.0653101206
H  3.4807202816 1.4009101391 1.8305602074
