19

C  0.8063200712 0.5719300508 -0.9716900587
C  2.2931501865 0.7005200386 -0.8980000615
C  2.9376103878 1.4519100189 0.0090300003
C  4.4336905479 1.5870101452 0.0783200115
C  4.8839302063 3.0200002193 -0.0931200087
C  4.6475300789 3.6452403069 -1.4410101175
C  5.4964303970 3.6952702999 0.8942101002
H  0.5146400332 -0.4723000228 -0.8242100477
H  0.4547200203 0.8918200731 -1.9569501877
H  0.3000100255 1.1796001196 -0.2151400149
H  2.8602201939 0.1438300014 -1.6408901215
H  2.3709802628 2.0054402351 0.7538700700
H  4.9232201576 0.9672800899 -0.6830400229
H  4.7623901367 1.1934500933 1.0483300686
H  5.1032104492 3.0358302593 -2.2280802727
H  5.0798201561 4.6494002342 -1.5081400871
H  3.5756702423 3.7339501381 -1.6441600323
H  5.6812305450 3.2417902946 1.8640401363
H  5.8297905922 4.7196502686 0.7607100606
