13

O  1.9924402237 -1.1516200304 0.4995700419
C  2.8965103626 -0.4500000477 -0.2129700184
O  3.5718402863 -0.9403600693 -1.1003100872
C  2.9617402554 0.9626600742 0.2131000161
C  3.8246903419 1.7930601835 -0.3896600008
C  3.9515502453 3.1872804165 -0.0339500047
C  4.8165802956 4.0119400024 -0.6351900697
H  1.5154801607 -0.6517400146 1.1852301359
H  2.3106901646 1.3042401075 1.0057001114
H  4.4693207741 1.4202601910 -1.1866002083
H  3.3150601387 3.5791304111 0.7566000223
H  5.4774703979 3.6788601875 -1.4299601316
H  4.8829102516 5.0545406342 -0.3398500085
