13

N  1.0003300905 -0.0440600030 -0.1680200249
C  2.4382703304 -0.0722300038 0.0832600072
C  3.0929002762 -1.2519600391 -0.5791800618
C  4.0112099648 -0.8651700616 -1.4684101343
N  4.0692901611 0.4902100265 -1.5208901167
C  3.1558501720 1.0769500732 -0.6582600474
O  2.9583902359 2.2748103142 -0.5251100659
H  0.6752200127 0.9116400480 -0.0097500002
H  0.5311900377 -0.6219000816 0.5250800252
H  2.6757102013 -0.0202400014 1.1501101255
H  2.8425600529 -2.2783002853 -0.3579900265
H  4.6352205276 -1.4832700491 -2.0988402367
H  4.6540102959 1.0355900526 -2.1384403706
