17

C  1.0122901201 -0.0189800020 -0.1016200110
N  2.4667103291 0.0121600004 -0.0713100061
C  2.9607002735 1.3856801987 0.0000000000
C  4.4047007561 1.3856801987 0.0000000000
C  5.5948605537 1.3856801987 0.0000000000
C  7.0388603210 1.3856801987 0.0000000000
N  7.5392203331 2.7412402630 -0.1809200197
H  0.6709900498 -1.0579100847 -0.1469400078
H  0.6164000630 0.5034200549 -0.9786600471
H  0.5871200562 0.4271900356 0.8031800389
H  2.8351302147 -0.4225300252 -0.9159200788
H  2.5931203365 1.8678301573 0.9131500721
H  2.5915100574 1.9667401314 -0.8533101082
H  7.4217209816 0.7479700446 -0.8036900759
H  7.4223303795 0.9860400558 0.9443600774
H  7.1901102066 3.1033802032 -1.0662701130
H  8.5527000427 2.7119603157 -0.2595600188
