14

O  0.8238200545 -0.0291500017 -0.0062500001
C  2.2478301525 0.0293200035 -0.0002100000
C  2.7562003136 1.4559201002 0.0150200017
C  1.9337701797 2.5213801861 0.0065700002
C  4.1966004372 1.6885501146 0.0396600030
C  5.1581401825 0.7560800314 0.0637400076
H  0.5868200064 -0.9707000852 0.0073000006
H  2.6042001247 -0.4894200563 -0.8966301084
H  2.5958902836 -0.5065200329 0.8888700604
H  0.8547900915 2.3968801498 -0.0119600007
H  2.2997603416 3.5429100990 0.0180700012
H  4.5158405304 2.7309801579 0.0390300006
H  4.9560904503 -0.3087700307 0.0683700070
H  6.2023305893 1.0548400879 0.0813100114
