14

C  1.0169401169 -0.0663800016 -0.0062800008
C  2.4788501263 0.0950500071 -0.0002400000
C  3.3383002281 1.1675901413 0.0022400001
N  4.6371102333 0.7273100615 0.0083900001
C  4.5237607956 -0.5856299996 0.0094900010
C  5.5916504860 -1.6045600176 0.0152200004
O  3.2341902256 -1.0438700914 0.0043500001
H  0.5142200589 0.9056500196 0.0026100001
H  0.6888600588 -0.6271400452 0.8743000627
H  0.6944200397 -0.6083600521 -0.9005300403
H  3.0953302383 2.2208302021 -0.0000300000
H  5.1787104607 -2.6177501678 0.0236200020
H  6.2230806351 -1.4849401712 0.9004700780
H  6.2198705673 -1.4981601238 -0.8739901185
