19

C  2.5135202408 -1.1244500875 -1.3809001446
C  2.5591402054 -0.7402001023 0.0707600042
C  1.8900102377 -1.4364701509 1.0052701235
C  3.3782100677 0.4817000329 0.4228300452
C  4.8556404114 0.3258200288 0.1921100169
C  5.5182003975 0.9380700588 -1.0160700083
C  5.7661404610 1.5167901516 0.3484300077
H  2.1462700367 -0.2887300253 -1.9846202135
H  1.8495701551 -1.9778201580 -1.5580000877
H  3.5104203224 -1.4020000696 -1.7374801636
H  1.2972501516 -2.3094100952 0.7489300370
H  1.9186201096 -1.1541299820 2.0530700684
H  3.2325301170 0.7350700498 1.4811800718
H  2.9881503582 1.3380100727 -0.1431900114
H  5.2300305367 -0.6238100529 0.5598800182
H  4.9149703979 1.5151001215 -1.7076700926
H  6.3225102425 0.3847500384 -1.4872601032
H  6.7376604080 1.3534001112 0.8013800383
H  5.3262100220 2.4803102016 0.5808700323
