15

N  0.6901200414 1.4761400223 0.0979000106
N  1.9061001539 0.9177800417 0.2942100167
C  2.8843002319 1.7394901514 0.0763300061
C  4.2873902321 1.3112701178 0.2433700114
C  5.2865304947 2.1744301319 0.0136900013
C  6.7295508385 1.8271101713 0.1601100117
O  7.3636803627 2.0359802246 -1.0900900364
H  -0.0234700013 0.7429600954 0.1271400154
H  0.4499900341 2.1019802094 0.8712800741
H  2.7205901146 2.7853300571 -0.2437900156
H  4.4479804039 0.2844700217 0.5519300103
H  5.0774002075 3.1964204311 -0.2926900089
H  6.8876805305 0.7883101106 0.4667700231
H  7.2006306648 2.4804303646 0.9002400637
H  6.9257807732 1.4506300688 -1.7318401337
