13

O  0.8285300732 -0.0385900028 0.2225900292
C  2.2629501820 -0.0127900010 0.0211800020
C  3.0492002964 1.0162600279 0.8628600836
O  3.4698903561 -0.0184700023 1.7935601473
C  3.0820901394 -1.0394800901 0.8338700533
C  2.5246703625 0.0114700003 -1.4027801752
C  2.7385301590 0.0315600000 -2.5847802162
H  0.7208800912 -0.0539600030 1.1899700165
H  2.4403700829 1.7765002251 1.3613101244
H  3.9105901718 1.4947801828 0.3847900331
H  3.9581403732 -1.4765301943 0.3428900242
H  2.4981400967 -1.8325601816 1.3104200363
H  2.9186501503 0.0492400043 -3.6349203587
