14

C  2.7097101212 -0.7484100461 -0.9366101027
C  2.2164101601 0.2980200052 -0.2609300315
C  2.9126002789 1.5673400164 -0.0661800057
C  2.1526801586 2.6453301907 0.2067600191
C  4.3691101074 1.6607701778 0.0371400043
C  5.1220502853 2.7200701237 -0.2887300253
H  2.1264503002 -1.6566500664 -1.0455601215
H  3.6870102882 -0.7247600555 -1.4074201584
H  1.2180900574 0.2108000070 0.1655500084
H  1.0675500631 2.5995101929 0.1981500089
H  2.5825300217 3.6113104820 0.4489200413
H  4.8698101044 0.7618800998 0.3948200345
H  4.6961102486 3.6381101608 -0.6788100600
H  6.2013306618 2.6800000668 -0.1825400144
