16

C  2.5307099819 -0.5338300467 -1.5176100731
C  2.4304602146 0.0680200085 -0.1243300065
C  3.4085202217 1.2225700617 0.0418900065
N  2.9841504097 2.4673099518 -0.6408600807
C  3.0773801804 3.3001403809 0.5721300244
C  3.2928402424 2.0039601326 1.3596200943
O  3.3432402611 1.7168902159 2.5363700390
H  1.8509601355 -1.3863401413 -1.6129801273
H  3.5483102798 -0.8832300901 -1.7216000557
H  2.2671401501 0.1985900104 -2.2874000072
H  2.6610801220 -0.7116400599 0.6112800837
H  1.3985500336 0.3876900375 0.0651800036
H  4.4474506378 0.9432500601 -0.1725600064
H  2.0412700176 2.4298901558 -1.0312601328
H  3.9356203079 3.9761002064 0.5914199948
H  2.1620903015 3.8371903896 0.8303200603
