22

C  1.5933901072 2.0831003189 -1.4042301178
C  2.8551602364 2.3556501865 -0.5992100835
C  3.9636304379 1.3593600988 -0.9469100833
C  5.2415504456 1.5383200645 -0.1001000032
C  6.2272305489 0.4049600363 -0.4097500443
C  5.9093003273 2.9195802212 -0.2546300292
N  6.2772803307 3.2401504517 -1.6295100451
H  0.8117500544 2.8019902706 -1.1387201548
H  1.2101001740 1.0766100883 -1.2075800896
H  1.7871501446 2.1737501621 -2.4781200886
H  2.6204700470 2.2923500538 0.4693600535
H  3.1814701557 3.3803403378 -0.8033700585
H  4.2036499977 1.4356001616 -2.0148601532
H  3.5797502995 0.3424800336 -0.7903100848
H  4.9595403671 1.4364401102 0.9567400813
H  6.5013604164 0.3817700148 -1.4694700241
H  5.7866005898 -0.5662900209 -0.1595500112
H  7.1442008018 0.5135000348 0.1790500134
H  6.8095102310 2.9608502388 0.3701000512
H  5.2397704124 3.7005603313 0.1206900105
H  6.9712405205 2.5747201443 -1.9662202597
H  6.7269005775 4.1544003487 -1.6538901329
