15

O  0.8295601010 0.0179700013 0.1702900082
C  2.2738902569 0.0171700008 0.0086100008
C  3.0325202942 0.9915800691 0.9532600641
O  3.3410301208 -0.0916200057 1.8713101149
C  3.0330002308 -1.0595899820 0.8313200474
C  2.6939301491 0.0986800045 -1.4229201078
C  2.1987702847 -0.7541100383 -2.3294901848
H  0.6947500110 -0.0436000042 1.1328301430
H  2.4123101234 1.7554701567 1.4316600561
H  3.9469501972 1.4555602074 0.5686000586
H  3.9473204613 -1.4721602201 0.3911200464
H  2.4141502380 -1.8756401539 1.2162901163
H  3.4028701782 0.8637400866 -1.7240500450
H  1.4720501900 -1.5152502060 -2.0592401028
H  2.4944000244 -0.6920000911 -3.3720402718
