15

C  1.3215801716 -0.1787200272 -0.5401200652
O  2.7360601425 -0.2038100213 -0.3915900290
N  3.1861302853 1.1139200926 -0.2161200047
C  4.4706501961 1.0968500376 -0.0749300048
N  5.2363505363 2.2089202404 0.1132000089
C  6.5913004875 2.2998101711 0.2714700103
C  7.2987203598 3.4179203510 0.4490700364
H  0.9724300504 -1.2024600506 -0.6974800825
H  1.0411101580 0.4266800284 -1.4074901342
H  0.8532701135 0.2186900228 0.3654400110
H  5.0504703522 0.1562000066 -0.0982300118
H  4.7188305855 3.0808601379 0.1345300227
H  7.1020407677 1.3392701149 0.2428100109
H  6.8281903267 4.3953003883 0.4831500649
H  8.3769311905 3.3764202595 0.5649099946
