15

O  2.1265001297 -0.3367100358 -1.3715301752
C  2.2973003387 0.0648400038 -0.0206100009
C  3.1444802284 1.3230801821 -0.0028000004
C  2.4919302464 2.6002001762 -0.6096701026
C  3.0069801807 3.3495302200 0.6350100636
O  3.1570003033 4.5182304382 0.9186200500
C  3.2692701817 2.0261900425 1.3795402050
H  1.6127501726 -1.1632601023 -1.3651500940
H  2.7941703796 -0.7435200810 0.5246100426
H  1.3100601435 0.2351300269 0.4206300378
H  4.1347804070 1.1293901205 -0.4411600232
H  1.4000800848 2.5920403004 -0.6763800383
H  2.9240503311 2.9382400513 -1.5539101362
H  4.2530703545 1.9565401077 1.8483401537
H  2.4882102013 1.7885102034 2.1075301170
