19

C  0.9389900565 -0.1299700141 -0.0474100001
C  2.4460699558 -0.2241400182 0.1431400031
C  3.1413702965 1.0769801140 -0.2744100094
N  4.5909800529 1.0695999861 -0.0110300006
C  5.3012700081 0.1136600077 -0.8630000353
C  5.1410002708 2.4128501415 -0.2160200179
H  0.4597200453 -1.0675200224 0.2521100044
H  0.6888700724 0.0596700013 -1.0958600044
H  0.5151600242 0.6767600775 0.5592900515
H  2.8131999969 -1.0702000856 -0.4476000369
H  2.6612200737 -0.4421800375 1.1973001957
H  2.6832301617 1.8922201395 0.3014700115
H  2.9397802353 1.2852401733 -1.3335601091
H  5.0099306107 -0.9159400463 -0.6337700486
H  6.3815503120 0.1654600054 -0.6826000214
H  5.1243305206 0.2984200120 -1.9287900925
H  4.6632404327 3.1329500675 0.4577500224
H  5.0067701340 2.7613503933 -1.2465900183
H  6.2112307549 2.4317700863 0.0185000021
