15

C  0.9632600546 0.0125800017 0.4459100366
C  2.2564601898 0.0046100006 0.0969100073
C  3.0814802647 -1.2348101139 -0.1904800236
C  4.2429804802 -0.7645200491 -1.0205200911
O  5.2458705902 -0.0083600003 -0.3313900232
C  4.2459206581 0.7282600999 -1.0462501049
C  3.0864002705 1.2302600145 -0.2312600166
H  0.4213900268 0.9441400170 0.5776900649
H  0.4178000391 -0.9113700986 0.6086000800
H  2.4960901737 -1.9802101851 -0.7373100519
H  3.4446203709 -1.6775101423 0.7443000078
H  4.5008106232 -1.3467100859 -1.8894002438
H  4.5052804947 1.2793401480 -1.9333200455
H  3.4509801865 1.7023000717 0.6874200702
H  2.5036401749 1.9593602419 -0.8031100631
