13

O  1.0262401104 0.0018700002 -0.0050700004
C  2.4392702579 0.0887500048 -0.0571000054
C  2.8502602577 1.4236501455 0.5071500540
C  3.6871602535 1.2411201000 1.5438400507
C  3.9527401924 -0.1770800054 1.8291300535
O  4.4847407341 -1.0750800371 0.8412100673
C  3.0625801086 -0.9360600710 0.8634200692
H  0.7830000520 -0.8181200624 -0.4651300311
H  2.7804300785 -0.0260000024 -1.0907400846
H  2.5116600990 2.3734402657 0.1232000068
H  4.1295704842 2.0421302319 2.1222400665
H  3.9633703232 -0.4809700251 2.8683302402
H  2.4374601841 -1.7394001484 1.2149500847
