11

C  1.0174500942 0.0356200039 -0.1058400124
C  2.2161402702 0.0091900006 -0.0467800051
C  3.6471402645 -0.0272400025 0.0296900012
C  4.4094004631 -0.7523200512 -1.0476500988
C  4.4483299255 0.7468300462 -0.9838100672
H  -0.0465400033 0.0572500043 -0.1574900150
H  4.0565404892 -0.0794700086 1.0344901085
H  3.8573503494 -1.2106200457 -1.8607701063
H  5.2985405922 -1.2986000776 -0.7551600337
H  5.3649306297 1.2182701826 -0.6488100886
H  3.9225702286 1.3011800051 -1.7533501387
