20

C  1.0837301016 0.0900800079 -0.0769200027
C  2.5762102604 0.2177000195 0.1971100122
C  3.0449502468 1.6735001802 0.4000400305
C  2.3878500462 2.3125700951 1.6288901567
N  4.5062403679 1.6566801071 0.6053200960
C  5.2751207352 1.7437602282 -0.6351000071
C  5.1665101051 2.9224002361 0.2944800258
H  0.8346400857 -0.9492601156 -0.3148300052
H  0.7845400572 0.7128100991 -0.9259500504
H  0.4883100390 0.3783200085 0.7940900326
H  3.1131403446 -0.2235700190 -0.6524800658
H  2.8271203041 -0.3890000284 1.0768501759
H  2.7602603436 2.2613000870 -0.4837400317
H  2.5669102669 1.7213401794 2.5335302353
H  1.3059800863 2.4054203033 1.4928901196
H  2.7719802856 3.3233101368 1.8042701483
H  4.7452802658 1.7805501223 -1.5791001320
H  6.2061204910 1.1912500858 -0.6500400901
H  6.0234103203 3.1651103497 0.9115400910
H  4.5604906082 3.7671604156 -0.0068300008
