10

C  1.0048301220 -0.1222700030 0.0501700044
O  2.4131700993 -0.0205200016 -0.1388700008
C  2.8438503742 1.2766100168 -0.1626300216
C  4.0658102036 1.5966801643 -0.5894400477
H  0.7336500883 -1.1815801859 0.0219000019
H  0.4657900333 0.3928200305 -0.7523600459
H  0.7138300538 0.2809400260 1.0261200666
H  2.1423699856 2.0167701244 0.1992500126
H  4.7496500015 0.8297800422 -0.9377400875
H  4.4038305283 2.6264603138 -0.5969400406
