17

N  0.9911900759 0.0375100002 -0.0374200009
C  2.4508101940 0.0187700000 0.0435200036
C  3.0516102314 1.1034100056 0.9359601140
N  4.4295701981 0.6367700100 1.1684801579
C  4.2912707329 -0.8152900338 1.3909001350
C  3.0132801533 -1.2687801123 0.6652500629
O  3.2765402794 -2.2416200638 -0.3456100225
H  0.6817100644 -0.7869100571 -0.5555400848
H  0.6835600734 0.8492000699 -0.5709300041
H  2.8394002914 0.1290600002 -0.9779000878
H  2.5227100849 1.1850900650 1.8939201832
H  3.0410201550 2.0871200562 0.4555900395
H  4.9720201492 0.7893600464 0.3182900250
H  5.1857705116 -1.3461700678 1.0496701002
H  4.1869201660 -0.9918301105 2.4676003456
H  2.3145201206 -1.7102601528 1.3856201172
H  3.9748904705 -1.8891600370 -0.9239600897
