16

C  2.4203701019 3.4007303715 1.0612901449
N  3.7670605183 3.0398001671 0.7062100172
C  4.0297002792 1.8660701513 0.0444600023
O  3.1661500931 1.0673501492 -0.2993400097
C  5.4817705154 1.5687600374 -0.1602500081
C  5.8466806412 0.1147300079 -0.1388900131
C  6.3756103516 2.5412900448 -0.4056400359
H  2.4130401611 4.4394102097 1.3993401527
H  2.0770502090 2.7446203232 1.8655101061
H  1.7638001442 3.2859101295 0.1940500140
H  4.5328102112 3.5451502800 1.1321401596
H  5.3236603737 -0.4263500273 -0.9340700507
H  5.5773406029 -0.3321400285 0.8235601187
H  6.9209804535 -0.0382900052 -0.2867600322
H  6.0968103409 3.5869302750 -0.4794800580
H  7.4229903221 2.3061203957 -0.5790600777
