15

O  1.3953200579 0.9387700558 1.6458400488
N  2.5425400734 1.5969300270 1.1891301870
C  3.4869701862 0.7316300273 1.0253801346
N  4.7555704117 0.9852401018 0.5824100375
C  5.0917706490 2.2555701733 -0.0176100023
C  6.5589604378 2.2334101200 -0.3213200271
C  7.0839905739 2.3205702305 -1.5509401560
H  0.7605700493 1.6725701094 1.7400400639
H  3.3322803974 -0.3408900499 1.2422801256
H  5.2538805008 0.1900000274 0.1992000043
H  4.8817000389 3.0787703991 0.6742000580
H  4.4999403954 2.4119000435 -0.9267600775
H  7.2260208130 2.1575901508 0.5342300534
H  6.4596004486 2.4117002487 -2.4348602295
H  8.1602706909 2.3090500832 -1.6975800991
