17

C  1.3656101227 -0.2130100131 0.1819600165
O  2.7853503227 -0.1625400186 0.1892000139
C  3.2622201443 1.1724301577 0.0164300017
C  4.7734203339 1.2072300911 -0.0406800061
C  5.5590105057 0.1172200143 0.0356200039
C  5.3624405861 2.5832202435 -0.1711100042
O  4.9697403908 3.1417801380 -1.4150100946
H  1.0571200848 -1.2506700754 0.3353100121
H  0.9754200578 0.1274100095 -0.7821900249
H  0.9545400739 0.3972300291 0.9920400381
H  2.9167401791 1.7836802006 0.8584900498
H  2.8524801731 1.5804001093 -0.9148401022
H  5.1341304779 -0.8777900934 0.1397700012
H  6.6415104866 0.1843700260 0.0003700001
H  6.4566202164 2.5744502544 -0.1308400035
H  5.0061006546 3.2340402603 0.6335000396
H  5.2535605431 2.5121603012 -2.1007802486
