12

C  0.9898400903 0.0125100007 -0.0040600002
C  2.4704203606 0.0482100025 -0.0054300004
N  3.2363803387 1.1190301180 -0.0089700008
C  4.5254702568 0.6543400288 -0.0092800008
C  4.5468401909 -0.7190400958 -0.0059700008
N  3.2324502468 -1.0936400890 -0.0036500003
H  0.5798700452 1.0272500515 0.0078200009
H  0.6176900268 -0.5156700611 0.8792000413
H  0.6161300540 -0.4957100451 -0.8982600570
H  5.3678603172 1.3340500593 -0.0118900016
H  5.3540301323 -1.4363501072 -0.0051500006
H  2.8771803379 -2.0397400856 -0.0010700001
