11

C  0.9682700634 0.0210500024 0.0019100002
C  2.1689603329 0.0235900003 0.0003200000
C  3.5889203548 0.0226900019 -0.0026200004
N  4.3370203972 1.1042500734 -0.0075500007
C  5.6331906319 0.6554600596 -0.0106700007
C  5.6735205650 -0.7185600996 -0.0074600005
N  4.3622703552 -1.1079101562 -0.0017800000
H  -0.0967800021 0.0320800021 0.0027200002
H  6.4663305283 1.3461099863 -0.0153000019
H  6.4894003868 -1.4267401695 -0.0087100007
H  4.0099601746 -2.0543000698 0.0017300001
