15

O  2.3515000343 -0.4254400432 -1.4702801704
C  2.3597300053 0.0960200056 -0.1442400068
C  3.3208603859 1.2784601450 -0.0605400056
C  3.5037004948 1.7714301348 1.3795700073
O  3.4354102612 3.2151901722 1.3863301277
C  2.9295601845 3.5251004696 0.1439600140
C  2.8197102547 2.5184500217 -0.7135800719
H  1.6972401142 -1.1449500322 -1.4910300970
H  2.6814601421 -0.7063400745 0.5281700492
H  1.3368401527 0.3861700296 0.1207000092
H  4.2859501839 1.0102200508 -0.5079200268
H  4.4752001762 1.4666101933 1.7837700844
H  2.7242400646 1.3974000216 2.0546500683
H  2.7073402405 4.5678200722 -0.0114700003
H  2.4787702560 2.5862202644 -1.7356700897
