15

C  1.2654401064 0.1229300126 0.5855400562
C  2.5871300697 -0.1474600136 -0.0522900037
C  3.3384702206 0.9706400633 -0.7148000598
N  3.8059403896 0.4170200229 0.5626299977
C  4.6619501114 -0.6570701003 0.5007400513
N  4.3179802895 -1.7773501873 -0.0623500049
C  2.8982102871 -1.5702500343 -0.4611900151
H  1.1610300541 1.1716099977 0.8831300139
H  1.1358901262 -0.4937900305 1.4806901217
H  0.4550700486 -0.1111500040 -0.1119600087
H  2.9784703255 1.9855902195 -0.6201000810
H  3.9865901470 0.7676000595 -1.5574201345
H  5.6416506767 -0.4901300371 0.9740600586
H  2.7872800827 -1.7077301741 -1.5414001942
H  2.2683601379 -2.2947702408 0.0648800060
