16

C  0.8194800615 0.0870900080 0.0593400039
C  2.2882101536 0.0588000044 0.3266900182
C  3.1794002056 0.8678300381 -0.2675999999
C  4.6232004166 0.8683800697 -0.0182300024
C  5.4425506592 -0.3188900352 -0.4518300593
C  5.5586204529 0.9805100560 -1.1934801340
H  0.4911600351 -0.8853800893 -0.3199500442
H  0.5466900468 0.8503000736 -0.6762100458
H  0.2762600183 0.2965500057 0.9858400822
H  2.6360702515 -0.6738200188 1.0515100956
H  2.8187103271 1.6023800373 -0.9859901071
H  4.9210104942 1.3714901209 0.8971200585
H  4.9476699829 -1.1442300081 -0.9512600899
H  6.2690505981 -0.6193000674 0.1817600131
H  6.4657306671 1.5598801374 -1.0637501478
H  5.1455802917 1.0273001194 -2.1948599815
