15

C  0.9674400687 -0.0004800000 -0.0047700005
C  2.4677402973 -0.0153000019 0.0014200001
C  3.1509501934 -1.1702001095 0.0126900012
C  3.1850004196 1.2176301479 0.0000000000
C  3.7800800800 2.2483401299 0.0000000000
C  4.4830803871 3.4659702778 0.0000000000
C  3.8494703770 4.6434402466 0.0000200000
H  0.5756500363 1.0215801001 0.0376800001
H  0.5713000894 -0.5412200093 0.8614000678
H  0.5815900564 -0.4657000303 -0.9180800915
H  2.6392602921 -2.1269199848 0.0149100004
H  4.2368502617 -1.1903500557 0.0186700001
H  5.5684604645 3.4324402809 -0.0000200000
H  2.7656202316 4.7092604637 0.0000500000
H  4.4093503952 5.5727305412 0.0000200000
