15

C  1.0000001192 0.0000000000 0.0000000000
C  2.4440002441 0.0000000000 0.0000000000
C  3.6341602802 0.0000000000 0.0000000000
C  5.0401601791 0.0000000000 0.0000000000
C  5.6852707863 -1.1319299936 -0.3227500319
C  5.7890505791 1.1988201141 0.3417900503
C  5.2716102600 2.3888201714 0.6811300516
H  0.6061500311 1.0209200382 0.0131800007
H  0.6059800386 -0.5217500329 0.8775300384
H  0.6059600711 -0.4989900291 -0.8906600475
H  5.1417303085 -2.0364000797 -0.5806300044
H  6.7682104111 -1.1934701204 -0.3403100073
H  6.8744401932 1.1132100821 0.3173400164
H  4.2018804550 2.5664203167 0.7318100929
H  5.9230303764 3.2239902020 0.9192301035
