15

C  0.9557100534 -0.2646900415 -0.0787700117
C  2.4275503159 -0.0290400013 -0.2097400129
C  3.0944302082 1.1096199751 0.0590800047
C  2.5396802425 2.4091501236 0.5602300167
O  2.7979700565 3.4466302395 -0.3789000511
C  4.5691304207 1.0884400606 -0.1475600153
O  5.2636103630 2.0842902660 0.0268200021
H  0.7793400884 -1.1219900846 0.5790600777
H  0.5310700536 -0.4971500337 -1.0606501102
H  0.4087700546 0.5859000087 0.3321700394
H  2.9734902382 -0.8993200660 -0.5726400614
H  2.9936203957 2.6822602749 1.5193601847
H  1.4596601725 2.3771800995 0.7151300907
H  3.7725803852 3.5335102081 -0.4158200324
H  5.0045204163 0.1307600141 -0.4790300429
