18

C  1.1118700504 -0.7442100644 0.0246000029
C  2.5033702850 -0.2071100175 -0.0950100124
C  2.9125401974 1.0746700764 0.0089800004
C  1.9980601072 2.2558202744 0.2102000117
N  2.2457602024 2.8639402390 1.5151101351
C  4.3799004555 1.4185701609 -0.1332200021
O  4.8874301910 1.9238901138 1.0926800966
H  1.1175301075 -1.6274001598 0.6710400581
H  0.7430800796 -1.0459500551 -0.9594900608
H  0.4073300362 -0.0328400023 0.4603800476
H  3.2566602230 -0.9768800735 -0.2672800124
H  0.9405000806 1.9939301014 0.1285400093
H  2.1908702850 2.9965403080 -0.5743200183
H  1.9346702099 2.2053902149 2.2326099873
H  1.6347200871 3.6753003597 1.6139701605
H  4.5200500488 2.1766800880 -0.9104800224
H  4.9837403297 0.5492000580 -0.4109800160
H  4.1618905067 2.4593701363 1.4798800945
