18

C  2.3155500889 -1.2479300499 0.0419800058
C  1.5641200542 0.0101000005 0.4598600268
C  2.5123302937 1.1609301567 0.8261700869
C  1.7059701681 2.4270601273 1.1099901199
O  3.2576901913 0.7607200742 1.9809402227
C  4.3671102524 1.6005901098 2.2691502571
H  1.6067301035 -2.0398502350 -0.2195400149
H  2.9534404278 -1.6203601360 0.8489700556
H  2.9443001747 -1.0538101196 -0.8330400586
H  0.9320101142 -0.2389300317 1.3208501339
H  0.9036100507 0.3141100109 -0.3601600230
H  3.1984202862 1.3385900259 -0.0115500009
H  1.0948001146 2.3086302280 2.0104000568
H  1.0518101454 2.6766803265 0.2682999969
H  2.3652601242 3.2837202549 1.2820800543
H  4.9583301544 1.1243500710 3.0560801029
H  4.0313601494 2.5724303722 2.6400001049
H  5.0020203590 1.7280901670 1.3877100945
