11

O  1.1744501591 0.0943500027 0.4115900397
C  2.3140101433 -0.0299600028 0.0249000005
O  3.1242401600 0.9237101078 -0.5099400282
C  4.2152004242 -0.0167399999 -0.6906300187
C  3.3957803249 -1.1352801323 -0.0422300026
C  3.0582401752 -2.2631101608 -0.8828800321
C  2.7835102081 -3.2038302422 -1.5770502090
H  4.4646301270 -0.1359700114 -1.7499701977
H  5.1070899963 0.2903200090 -0.1357000172
H  3.7529304028 -1.4209700823 0.9533700943
H  2.5329504013 -4.0387701988 -2.1913301945
