15

C  2.7013301849 -0.8021900654 -0.9802801013
N  2.5188400745 -0.0036600004 0.2267700136
C  3.0047802925 1.3780300617 0.0644300058
C  2.5231900215 2.2151000500 1.2445900440
C  4.5318603516 1.4476901293 0.0324000046
O  5.2845106125 0.5118400455 0.2921300232
H  2.3264601231 -1.8145301342 -0.8025500178
H  3.7537102699 -0.8887000680 -1.2699501514
H  2.1353600025 -0.3855200410 -1.8210800886
H  3.0558202267 -0.4423800111 0.9788001180
H  2.6247701645 1.8138401508 -0.8657500744
H  2.8536703587 1.7905302048 2.1998200417
H  1.4300801754 2.2808499336 1.2606301308
H  2.9221303463 3.2354702950 1.1904699802
H  4.9449701309 2.4353702068 -0.2285900265
