11

O  1.1754601002 0.0232800022 0.5226600170
C  2.3325099945 -0.0237300023 0.1527600139
C  3.1543800831 -1.2568600178 -0.0839600116
C  4.4578499794 -0.6403300166 -0.5172400475
C  4.5047607422 0.6979500055 -0.5613900423
C  3.1877002716 1.1922001839 -0.1479900181
O  2.8512103558 2.3521800041 -0.0639400035
H  2.7182602882 -1.8620901108 -0.8811700344
H  3.2727701664 -1.8231800795 0.8419900537
H  5.3074808121 -1.2615501881 -0.7771700621
H  5.3225207329 1.3400000334 -0.8386700749
