14

O  2.0353701115 0.1644200087 1.2212201357
C  2.3266303539 1.0856100321 1.9649400711
O  3.4429602623 1.8524601460 1.8950401545
C  4.3391103745 1.4993001223 0.8191701174
C  5.7190408707 2.1894402504 0.8370600939
N  6.3474702835 0.9081900716 0.4456600547
C  5.1581006050 0.1971600205 0.9675900936
H  1.7088501453 1.4250601530 2.8109302521
H  3.8485403061 1.5966701508 -0.1598600149
H  6.0372705460 2.5480504036 1.8229302168
H  5.8496003151 2.9988703728 0.1127100065
H  6.4628205299 0.8058000803 -0.5638900399
H  4.8252406120 -0.6423800588 0.3502600193
H  5.2779908180 -0.1524400115 1.9997401237
