17

C  0.9934400916 -0.1105900034 0.3053000271
C  2.3927400112 0.1998400092 -0.1867600083
C  3.2161102295 1.1868801117 0.6451000571
C  4.0947003365 -0.0247100014 0.9832100868
C  5.5469102859 0.0165700018 0.5304099917
O  6.2601103783 1.0031601191 1.2737700939
O  3.3024802208 -0.8842800260 0.1203200072
H  0.5613700747 -0.9419100881 -0.2611200213
H  0.3397600353 0.7581601143 0.1772300154
H  0.9891501069 -0.3849800229 1.3655201197
H  2.4108903408 0.4198200405 -1.2606800795
H  2.7035400867 1.6313301325 1.5027700663
H  3.6989603043 1.9747302532 0.0602300055
H  3.9989204407 -0.3497500122 2.0269501209
H  5.6384801865 0.2479200214 -0.5361599922
H  6.0283603668 -0.9495200515 0.7101800442
H  6.0184507370 1.8731101751 0.9129300714
