17

C  2.1274702549 -1.0599101782 -0.3466600478
N  3.5187404156 -0.6432400346 -0.2205400169
N  3.7214903831 0.6923601031 -0.1525200158
C  4.9515504837 1.0916301012 0.0111200009
C  6.1506800652 0.1854900122 0.1588800102
C  5.1980404854 2.5906603336 0.0841000080
O  5.1519103050 3.0178403854 1.4355400801
H  2.0650601387 -2.1527600288 -0.3351600468
H  1.6947801113 -0.6994500756 -1.2857700586
H  1.5298901796 -0.6800300479 0.4875200391
H  4.0590600967 -1.0728000402 -0.9750400782
H  5.9258704185 -0.6519200802 0.8258300424
H  6.9936604500 0.7396000624 0.5819300413
H  6.4368805885 -0.1943300068 -0.8252100945
H  4.4357800484 3.1293103695 -0.4867000282
H  6.1806902885 2.8286499977 -0.3316300213
H  4.2597103119 2.7871601582 1.7570900917
