13

N  1.0000001192 0.0000000000 0.0000000000
C  2.1510102749 0.0000000000 0.0000000000
C  3.5570101738 0.0000000000 0.0000000000
C  4.3336100578 -1.0843100548 -0.0587800071
C  5.7664003372 -0.6956400871 -0.0576400049
N  5.7844200134 0.7767800689 -0.1413500160
C  4.3882503510 1.2294800282 0.0449100062
H  3.9894902706 -2.1083600521 -0.0951400101
H  6.2556109428 -1.0251300335 0.8641700745
H  6.2939205170 -1.1329101324 -0.9111900330
H  6.0808801651 1.0373400450 -1.0820100307
H  4.1138405800 1.9361600876 -0.7457100749
H  4.2936100960 1.7323101759 1.0135500431
