18

N  1.9229402542 -0.2863600254 -1.3474000692
C  2.4133400917 0.1372600049 -0.0353200026
C  3.1577303410 1.4771502018 -0.0744000077
C  2.3033702374 2.6545102596 -0.5177000761
C  3.0161402225 3.8097002506 0.1397000104
C  3.4271602631 3.2094302177 1.4667401314
O  3.6441602707 1.8082600832 1.2435401678
H  1.4539901018 -1.1866201162 -1.2484700680
H  2.7167701721 -0.4514800310 -1.9659301043
H  3.0765600204 -0.6349800229 0.3724400401
H  1.5691201687 0.2051800042 0.6609800458
H  4.0407505035 1.3913301229 -0.7210200429
H  1.2861900330 2.5751399994 -0.1167500019
H  2.2387602329 2.7501401901 -1.6048002243
H  3.9064903259 4.0772004128 -0.4427300394
H  2.3973400593 4.7046203613 0.2490500212
H  4.3365402222 3.6631503105 1.8689701557
H  2.6291801929 3.3076603413 2.2094302177
