15

C  1.0292600393 -0.0671100020 -0.1482000053
C  2.4862401485 0.1335900128 0.0650900081
O  3.3202102184 -0.4718400240 -0.9267001152
C  3.3057003021 0.9717700481 -0.8838100433
C  4.5653705597 1.5881401300 -0.4243900180
N  4.4810605049 2.8416802883 0.0793200061
N  5.6788706779 0.9482600689 -0.4989100397
H  0.4625300467 0.7032800317 0.3834500313
H  0.7225300670 -1.0439901352 0.2380600125
H  0.7578700185 -0.0193500016 -1.2079100609
H  2.7863900661 0.0499900021 1.1009900570
H  2.8088603020 1.4754000902 -1.7041301727
H  3.6262001991 3.0993001461 0.5545800328
H  5.3245806694 3.1098103523 0.5763100386
H  5.4925007820 0.0182900019 -0.9018300772
