16

C  1.0316300392 -0.1380600035 0.1786600202
C  2.5182001591 0.0435700044 -0.1281500012
C  2.8569202423 -0.5586600304 -1.5020201206
O  4.2660007477 -0.5962800384 -1.7145401239
C  2.8705801964 1.5157501698 -0.0761800110
C  3.7759201527 2.0395500660 0.7607300878
H  0.7776900530 0.2813400328 1.1584900618
H  0.7664000392 -1.2007200718 0.1930900067
H  0.4030400515 0.3547600210 -0.5720000267
H  3.0988903046 -0.4918500185 0.6346900463
H  2.3987102509 0.0083400002 -2.3201301098
H  2.4954102039 -1.5904000998 -1.5662600994
H  4.6007103920 0.3074100018 -1.5753500462
H  2.3459901810 2.1778802872 -0.7630800605
H  4.3237600327 1.4238601923 1.4684600830
H  3.9857404232 3.1050901413 0.7587900162
