15

C  1.2366900444 -0.0481000021 -0.2562200129
N  2.6932702065 -0.0106200008 -0.3212400079
C  3.3147702217 -1.2097700834 0.2615400255
C  4.7173805237 -0.6980299950 0.5778500438
O  5.6585407257 -1.0123600960 -0.4348300397
C  4.4399104118 0.7773000598 0.5854700208
N  3.3011603355 1.1345500946 0.0889400020
H  0.8464900851 -0.9720600843 -0.6964200139
H  0.8090200424 0.7881500721 -0.8198400140
H  0.8833700418 0.0244800020 0.7783000469
H  3.3148400784 -2.0451400280 -0.4449000061
H  2.8098700047 -1.5025900602 1.1893900633
H  5.0869102478 -1.0317100286 1.5499700308
H  5.2568902969 -0.7260800600 -1.2770401239
H  5.1855101585 1.4831900597 0.9769700766
