17

C  2.0752301216 -0.5449900627 -0.3467000425
O  3.3617203236 0.0584100075 -0.3070200384
C  3.4327204227 1.4011701345 -0.0208999999
C  2.3923599720 2.2310700417 0.1725000143
C  4.8050904274 1.8839401007 0.0485500023
C  5.6492304802 1.6554300785 -1.1744700670
C  5.2942900658 2.4860401154 1.1457101107
H  2.2085402012 -1.6078801155 -0.5690800548
H  1.4620401859 -0.1099200100 -1.1423900127
H  1.5738201141 -0.4647600353 0.6234700680
H  1.3615001440 1.9075801373 0.1221400052
H  2.5531401634 3.2851502895 0.3781700432
H  5.7653107643 0.5859800577 -1.3788201809
H  6.6533303261 2.0786499977 -1.0605601072
H  5.1916604042 2.1296203136 -2.0496401787
H  4.6876502037 2.6309201717 2.0344202518
H  6.3213100433 2.8335101604 1.1892501116
