15

C  0.9528400302 0.0874600112 -0.1571700126
C  2.4381802082 -0.0491900034 0.1388799995
O  2.6498601437 -1.2400401831 0.9360700250
C  3.2554502487 -0.8099501133 2.1068601608
C  3.5860602856 -1.6512501240 3.0858502388
C  3.4510502815 0.6036500335 2.0993301868
C  2.9749300480 1.0796600580 0.9518800378
H  0.5979600549 -0.7829600573 -0.7193101048
H  0.7422500253 0.9894100428 -0.7403200865
H  0.3640100360 0.1229900122 0.7665500641
H  3.0061800480 -0.1569000185 -0.7922100425
H  3.3862404823 -2.7120301723 2.9844202995
H  4.0548100471 -1.3080000877 4.0005702972
H  3.9058003426 1.1754000187 2.8921203613
H  2.9813301563 2.1141099930 0.6452600360
