17

C  1.0410701036 0.0746800005 0.1638900191
C  2.5321602821 -0.0719400048 -0.1132600084
C  2.8976001740 -1.4762500525 -0.6177800894
O  3.0454602242 -1.3805401325 -2.0479800701
C  3.4068202972 -0.0166800003 -2.3635301590
C  2.3073501587 0.9799200892 -2.5273401737
C  3.0170702934 0.8441000581 -1.2007700205
H  0.7897700667 1.1140500307 0.4022400379
H  0.7469600439 -0.5500500202 1.0146100521
H  0.4304800332 -0.2297500223 -0.6925500631
H  3.0704700947 0.1278000027 0.8207500577
H  2.1496703625 -2.2364001274 -0.3740800321
H  3.8643202782 -1.7928401232 -0.2120000273
H  4.3538203239 0.1668300033 -2.8564503193
H  2.5130701065 1.8636300564 -3.1208202839
H  1.2993301153 0.6027100086 -2.6474201679
H  3.6979503632 1.6165101528 -0.8733800650
