18

C  1.2010000944 1.7458901405 -1.6363102198
O  2.5980100632 1.8413801193 -1.3883500099
C  2.9398202896 1.3276001215 -0.0973600075
C  4.4525604248 1.4778401852 0.1359600127
N  5.2473101616 0.7957500815 -0.9181300402
C  4.8723306656 2.9585402012 0.1723200083
O  6.2855606079 3.0396001339 0.3627000153
H  0.9972300529 2.1628401279 -2.6263701916
H  0.6392900348 2.3203101158 -0.8930300474
H  0.8814400434 0.6993800402 -1.6245901585
H  2.6593601704 0.2687399983 -0.0473500006
H  2.3864202499 1.8742401600 0.6750000715
H  4.7209005356 1.0145100355 1.0928801298
H  4.9012904167 1.1510599852 -1.8167902231
H  4.9907603264 -0.1924200207 -0.9273400903
H  4.3852005005 3.4844202995 0.9988800287
H  4.6277503967 3.4767203331 -0.7609900236
H  6.6397604942 2.3047101498 -0.1811100096
