14

C  1.0616800785 0.2100100070 0.8529101014
C  1.9685101509 0.3268600404 -0.1250900030
C  3.0988001823 1.2868101597 -0.0433700047
C  2.7727200985 2.7302801609 -0.4499400258
C  3.4759502411 3.1075904369 0.8501700759
O  3.4988503456 1.7268900871 1.2847601175
H  0.2474500239 -0.5028600097 0.7741000652
H  1.1151901484 0.8099600673 1.7571901083
H  1.8982201815 -0.2928300202 -1.0136200190
H  3.9756102562 0.8849700093 -0.5684199929
H  1.7118901014 2.9975001812 -0.4757200181
H  3.2625300884 3.0799500942 -1.3622400761
H  4.4892501831 3.5051901340 0.7401500344
H  2.8969101906 3.7388203144 1.5292401314
