15

C  1.2926200628 -1.4816100597 0.5575300455
C  1.8720101118 -0.4641800225 -0.3893200159
O  1.3753300905 -0.2675900161 -1.5005600452
C  3.1083202362 0.2848200202 0.0710200071
N  4.2019004822 -0.6723800302 0.2878400087
C  4.9197001457 -0.8735501170 -0.7556501031
N  5.9834303856 -1.7125601768 -0.7588800788
H  1.2379901409 -1.0619001389 1.5660300255
H  1.9144002199 -2.3805303574 0.5580300093
H  0.2794900239 -1.7441102266 0.2391800284
H  2.8785200119 0.7989800572 1.0097800493
H  3.3628401756 1.0590300560 -0.6633600593
H  4.7444000244 -0.3928200305 -1.7365201712
H  6.0387506485 -2.3055002689 0.0617300048
H  6.2069802284 -2.1795802116 -1.6287400723
