14

C  0.4350100160 1.3057901859 0.1305200160
C  -1.0620400906 1.0562400818 -0.0646900088
C  -1.3916400671 -0.4005000293 0.0754000023
C  -0.4194000363 -1.3241901398 0.0465800054
C  1.0265800953 -0.9713200331 -0.1565500200
O  1.1986100674 0.3687200546 -0.6317501068
H  0.6917500496 2.3125603199 -0.2146300226
H  0.7209500670 1.2367800474 1.1875500679
H  -1.3663601875 1.3780701160 -1.0677001476
H  -1.6297500134 1.6457201242 0.6631500721
H  -2.4309103489 -0.6898700595 0.1946600080
H  -0.6633600593 -2.3757901192 0.1626800150
H  1.5838701725 -1.0973000526 0.7781900764
H  1.4663301706 -1.6384301186 -0.9045600295
