17

N  0.9937400818 -0.0126700010 0.0475900061
C  2.4660701752 -0.0184200015 -0.0279500019
C  2.9717402458 -1.2400000095 -0.8247000575
C  3.3174402714 -0.6724600196 -2.1637201309
C  3.3505702019 0.6648000479 -2.1431000233
C  3.0288901329 1.2233600616 -0.7935200334
N  4.2528600693 1.7717001438 -0.2107800096
H  0.6814400554 0.8063300848 0.5666300654
H  0.6734600663 -0.8302100897 0.5633900166
H  2.8391501904 -0.0549800023 1.0025800467
H  2.2187101841 -2.0303902626 -0.9071100950
H  3.8665204048 -1.6679600477 -0.3590800464
H  3.5354104042 -1.2781500816 -3.0326502323
H  3.5963902473 1.2877900600 -2.9918501377
H  2.2807199955 2.0198602676 -0.8694400787
H  4.9575405121 1.0365101099 -0.1687800139
H  4.0692000389 2.0432801247 0.7527100444
