16

C  0.9804000854 -0.0438500047 0.0280400030
N  2.4271101952 0.0533400029 0.1778700054
C  2.9212303162 1.4336501360 0.0717200041
C  2.5273101330 2.2792503834 1.2846301794
C  4.4475007057 1.3922600746 -0.0517800041
H  0.6886200905 -1.0985201597 0.0398000032
H  0.6438400149 0.3846600354 -0.9207800627
H  0.4518800378 0.4422000349 0.8529101014
H  2.8650801182 -0.5152700543 -0.5471500754
H  2.5264501572 1.9016600847 -0.8396100402
H  2.8623502254 1.8171901703 2.2191901207
H  1.4443100691 2.4213502407 1.3434101343
H  2.9803903103 3.2746202946 1.2228200436
H  4.9092307091 0.9308900833 0.8278200626
H  4.8538703918 2.4041004181 -0.1536700130
H  4.7559404373 0.8233900666 -0.9353500605
