19

C  0.8481600881 -0.1738800257 0.0406900048
C  2.3764300346 -0.1343200058 -0.0732800066
C  2.8217103481 -1.0795100927 -1.1943399906
C  2.9398303032 1.2885200977 -0.3019700348
O  2.4924499989 1.8107701540 -1.5492501259
C  2.6118102074 2.2389502525 0.8244600892
C  2.0242500305 3.4401001930 0.7284700871
H  0.4936000407 0.4433000088 0.8727100492
H  0.5039900541 -1.1976000071 0.2271000147
H  0.3619000316 0.1760300100 -0.8760700822
H  2.7892503738 -0.5189800262 0.8686200380
H  2.4041402340 -0.7833000422 -2.1629300117
H  2.4946603775 -2.1048901081 -0.9888500571
H  3.9133701324 -1.0908401012 -1.2833400965
H  4.0330901146 1.2238600254 -0.3649300337
H  1.5345001221 1.9486001730 -1.4744100571
H  2.9102702141 1.8985800743 1.8148101568
H  1.7263700962 3.8655803204 -0.2241600156
H  1.8488301039 4.0419206619 1.6155701876
