14

C  0.9509500861 -0.0905900076 -0.2513700128
C  2.2459001541 -0.2192400247 0.0625600070
C  3.1805801392 0.9272300601 -0.0836100057
O  2.8390302658 2.0311601162 -0.4888100326
C  4.6076703072 0.6425700188 0.2166300118
C  5.2944407463 1.4313501120 1.3030500412
N  4.9169301987 0.0399900042 1.5224400759
H  0.2665700316 -0.9248000383 -0.1420100182
H  0.5458400249 0.8488600850 -0.6185400486
H  2.6483600140 -1.1535500288 0.4341700375
H  5.2091102600 0.3279300034 -0.6281400323
H  4.7195405960 2.1768903732 1.8401300907
H  6.3503108025 1.6454300880 1.1966000795
H  5.7368001938 -0.5662500262 1.4560201168
