19

C  1.5639201403 0.0494600050 0.4489700198
C  2.8242402077 -0.0966600031 -0.4065800309
C  2.4834702015 -0.8350100517 -1.7096801996
O  3.6651203632 -1.2133601904 -2.4096601009
C  3.4078602791 1.2722401619 -0.6875500679
C  4.2750802040 1.9427001476 0.3493200243
C  4.8868603706 1.4501301050 -0.9300700426
H  1.7852700949 0.5694700480 1.3878500462
H  1.1445901394 -0.9312600493 0.6983700395
H  0.7934600711 0.6263999939 -0.0741700083
H  3.5590302944 -0.6919000745 0.1501200050
H  1.8693901300 -0.2207600176 -2.3776602745
H  1.9325401783 -1.7562800646 -1.4950101376
H  4.1316800117 -0.3923600316 -2.6439201832
H  2.7282102108 1.9070901871 -1.2472800016
H  4.5131506920 1.4052200317 1.2608301640
H  4.1718006134 3.0140101910 0.4846500456
H  5.1977605820 2.1900300980 -1.6591100693
H  5.5373506546 0.5835500360 -0.8730100393
