8

O  0.9270800352 -0.0841200128 0.0000000000
C  2.1494503021 -0.0709900036 0.0000000000
C  2.8763401508 1.1707000732 0.0000000000
C  3.4855403900 2.2046000957 0.0000000000
C  4.2636704445 3.5241804123 0.0000000000
C  4.8718404770 4.5586004257 0.0000000000
H  2.7636902332 -0.9850301147 0.0000000000
H  5.4091606140 5.4789104462 0.0000000000
