12

C  0.7411700487 0.0985900089 0.0605800040
C  2.0779802799 -0.0072300006 0.0245000031
N  2.8313503265 -1.1661900282 0.0018700002
C  2.4366800785 -2.4655702114 0.0129600009
N  3.2094502449 -3.4927003384 -0.0126000009
C  2.8711299896 1.1903500557 0.0052300002
N  3.5446701050 2.1341700554 -0.0113100009
H  0.2493400127 1.0682100058 0.0754900128
H  0.0908500031 -0.7683600783 0.0760800093
H  3.8345403671 -1.0108300447 -0.0280100033
H  1.3460700512 -2.6196203232 0.0476800054
H  4.1919903755 -3.2136402130 -0.0439400040
