19

C  0.9904400706 -0.1202200130 -0.0771000087
C  2.5014600754 -0.0124700004 0.0744200051
C  3.0273902416 1.4328200817 0.0000000000
C  2.5061903000 2.2977001667 1.1483399868
C  4.4713902473 1.4328200817 0.0000000000
C  5.6615505219 1.4328200817 0.0000000000
C  7.1055507660 1.4328200817 0.0000000000
H  0.6925400496 -1.1728600264 -0.1195300147
H  0.6518500447 0.3643800318 -0.9982400537
H  0.4679200351 0.3357300162 0.7686500549
H  2.9665102959 -0.6090200543 -0.7218700647
H  2.8010401726 -0.4783700407 1.0221101046
H  2.6785101891 1.8786801100 -0.9404100776
H  2.7650201321 1.8680201769 2.1238501072
H  1.4177200794 2.4089601040 1.1042900085
H  2.9369900227 3.3059203625 1.1084300280
H  7.4995808601 2.4536800385 -0.0115200011
H  7.4995808601 0.9123600125 -0.8783000112
H  7.4995107651 0.9323700666 0.8898900747
