14

N  2.7168402672 -0.9660500884 -0.4638200402
C  2.1809504032 0.1526600122 0.0994400084
O  1.0586600304 0.1338900030 0.5906300545
C  3.0403203964 1.3852400780 0.0288500022
C  2.4043402672 2.5646102428 0.1304400116
C  4.4895901680 1.2788001299 -0.0143800015
C  5.3036704063 2.0679402351 -0.7282800674
H  3.5738904476 -0.9536501169 -0.9970700741
H  2.1350502968 -1.7921700478 -0.4924600422
H  1.3216000795 2.6174299717 0.2116800249
H  2.9392900467 3.5076103210 0.1509800255
H  4.9211802483 0.4784600437 0.5848700404
H  4.9289307594 2.8750503063 -1.3506300449
H  6.3789405823 1.9189201593 -0.7031500936
