14

O  1.5039700270 -0.3900400102 1.0848001242
C  1.8235300779 0.1742100120 -0.1775400043
C  2.7431802750 1.3886500597 -0.0193700008
C  2.1285102367 2.7442502975 0.1512100250
C  0.8656600714 2.9476602077 0.5459300280
N  4.0225200653 1.1449701786 -0.0336600058
O  4.7856602669 2.3059802055 0.1348800212
H  2.3570201397 -0.6209300756 1.4971201420
H  0.8987500668 0.4496000409 -0.6900400519
H  2.3227801323 -0.5873000026 -0.7850100398
H  2.7782201767 3.5920903683 -0.0417200029
H  0.1869900078 2.1366803646 0.7931100726
H  0.4865300357 3.9580004215 0.6637100577
H  5.6986203194 1.9618201256 0.1248700097
