12

C  0.4004800022 1.4895900488 0.5015000105
C  0.9220800996 0.3701000512 -0.3433100283
N  0.9542500973 -0.9975700974 0.1936500072
C  -0.3747500479 -1.3147001266 0.3421400189
N  -1.2715100050 -0.4183800220 0.0420900062
C  -0.5526700616 0.7622700334 -0.4039500356
H  0.6793100834 2.5002903938 0.2291500270
H  0.3015100360 1.3357900381 1.5694000721
H  1.5424801111 0.5674999952 -1.2063101530
H  1.5441201925 -1.7151200771 -0.2111600041
H  -0.5950400233 -2.3434903622 0.6643800735
H  -0.9771000743 1.3261300325 -1.2231299877
