10

C  0.9236600995 -0.3630600274 0.0191700011
C  2.1864800453 0.0557200052 -0.0877400041
N  2.5005803108 1.3832401037 -0.1568400115
C  3.7674102783 1.8876200914 -0.2670200169
O  4.0101804733 3.0858201981 -0.3264100254
H  0.6987900734 -1.4239300489 0.0724700019
H  0.0847200081 0.3245900273 0.0566500016
H  3.0088901520 -0.6554000378 -0.1232000068
H  1.7657401562 2.0809500217 -0.1273300052
H  4.5572099686 1.1185001135 -0.2980800271
