18

C  1.0328600407 -0.0075800004 -0.1292200089
C  2.5635201931 -0.0696900040 -0.0210200027
C  2.9412002563 -0.7636500597 1.2986100912
C  3.1405801773 -0.8797401190 -1.1911801100
C  3.1448302269 1.3517901897 -0.0344400033
N  2.8942604065 2.0999403000 -1.1465101242
O  3.8051900864 1.8333902359 0.8807500601
H  0.7086700797 0.4150800407 -1.0863000154
H  0.6083100438 0.6192100048 0.6633900404
H  0.5888100266 -1.0059001446 -0.0443000011
H  2.5492901802 -0.2142600119 2.1626801491
H  4.0293102264 -0.8266600370 1.4170300961
H  2.5411102772 -1.7832801342 1.3419201374
H  2.8399701118 -0.4669000208 -2.1601302624
H  2.8001301289 -1.9208600521 -1.1583101749
H  4.2362804413 -0.8818600774 -1.1645500660
H  2.3603000641 1.7720100880 -1.9371602535
H  3.2712802887 3.0386703014 -1.1690601110
