9

C  0.9671900868 0.0380500033 -0.0005000000
C  2.1692202091 0.0090600001 -0.0000800000
C  3.5885803699 -0.0252700020 0.0004200000
N  4.2774705887 1.1136100292 0.0030200002
O  5.6141800880 0.7063200474 0.0027200002
N  5.7180805206 -0.6879400611 -0.0000900000
C  4.4553904533 -1.1149100065 -0.0014700001
H  -0.0966500044 0.0751500055 -0.0008500001
H  4.2445802689 -2.1730203629 -0.0037200002
