14

C  1.6677200794 -1.7432100773 1.6552101374
C  1.6094501019 -0.8596000671 0.4328700304
O  0.6715600491 -0.9387500286 -0.3616300225
C  2.6963400841 0.1842800230 0.2909500301
O  3.9626402855 -0.4592900276 0.3709000349
N  4.9378700256 0.5005600452 0.6767000556
C  6.0947208405 -0.0702800080 0.6694000363
H  2.6212000847 -2.2751102448 1.6909600496
H  0.8622300625 -2.4819900990 1.6125801802
H  1.5429401398 -1.1316200495 2.5522801876
H  2.5708701611 0.9220900536 1.0914400816
H  2.6039299965 0.6755501032 -0.6828800440
H  6.9980502129 0.5157100558 0.8963500857
H  6.2353005409 -1.1410701275 0.4421800375
