15

C  1.1998701096 0.5020400286 -0.5699400306
N  2.4820501804 0.6120800376 0.0713400021
C  3.6259503365 0.1408300102 -0.5323200226
O  3.6717603207 -0.2898700237 -1.6787400246
N  4.7128701210 0.2300600260 0.3410200179
C  5.7186903954 -0.7947500944 0.3480400443
C  6.0159502029 0.5651800036 -0.1619800031
H  0.8444000483 -0.5272600055 -0.4686000347
H  1.2816001177 0.7544000149 -1.6307001114
H  0.5034600496 1.1839001179 -0.0758600086
H  2.5323600769 0.7003700733 1.0759199858
H  5.5660505295 -1.6007701159 -0.3577900231
H  6.0421404839 -1.0712800026 1.3411600590
H  6.5516605377 1.2632600069 0.4655800164
H  6.0749301910 0.7267200351 -1.2311100960
