18

C  0.9933800697 0.0122200008 -0.0208500009
C  2.5112402439 0.0049200007 0.0460500047
C  3.0779201984 1.1260600090 0.9122300744
C  4.4969005585 0.6542300582 1.1815501451
C  4.3536205292 -0.8458000422 1.4111701250
C  3.0821201801 -1.2705500126 0.6735800505
H  0.6303000450 -0.8163200617 -0.6372600794
H  0.6308500767 0.9472200871 -0.4597900212
H  0.5483700037 -0.0872800052 0.9748300910
H  2.9107201099 0.1060500145 -0.9723001122
H  2.5233201981 1.2185500860 1.8535500765
H  3.0561702251 2.0947201252 0.4040300250
H  5.1278800964 0.8381500840 0.3037200272
H  4.9512305260 1.1633701324 2.0364801884
H  5.2340903282 -1.3914101124 1.0574001074
H  4.2456007004 -1.0560400486 2.4817702770
H  3.2991104126 -2.0203502178 -0.0948200002
H  2.3789904118 -1.7248200178 1.3811800480
