13

O  1.0000400543 -0.0036200003 -0.0029100003
C  2.4200003147 0.0000000000 0.0000000000
C  2.9020202160 1.3611700535 0.0000000000
C  3.2993004322 2.4830701351 0.0000000000
C  3.7813203335 3.8442401886 0.0000000000
C  2.7201402187 4.8569903374 -0.0829200074
C  1.8640900850 5.6977205276 -0.1500000060
H  0.7240000367 -0.9341400862 -0.0057100002
H  2.7677400112 -0.5392300487 -0.8864400387
H  2.7639601231 -0.5380100608 0.8886700273
H  4.4717202187 3.9869401455 -0.8400200605
H  4.3696999550 4.0230803490 0.9080000520
H  1.1043801308 6.4442806244 -0.2092000097
