16

C  1.2650600672 -1.3997000456 0.8740800619
C  2.1954102516 -1.1892901659 -0.3176500201
C  3.1058802605 -2.4003400803 -0.4943700135
O  1.3618800640 -1.0331900120 -1.4716202021
C  1.8156901598 -0.3185300529 -2.5407302380
C  2.9867801666 0.3021399975 -2.7186503410
H  0.5969100595 -0.5389599800 0.9903401136
H  1.8297400475 -1.5292700529 1.8023301363
H  0.6247500181 -2.2767002583 0.7256000638
H  2.7809500694 -0.2847500145 -0.1195800155
H  2.5215303898 -3.3006103039 -0.7155100107
H  3.7028901577 -2.5821702480 0.4043100178
H  3.7905104160 -2.2577102184 -1.3374201059
H  1.0470499992 -0.3071100116 -3.3066401482
H  3.7776103020 0.3081500232 -1.9800401926
H  3.1791901588 0.8327500820 -3.6459903717
