19

C  1.0102601051 -0.0011500001 -0.0134800011
C  2.5502500534 -0.0374500006 0.0102200015
C  3.0019502640 -0.7854200602 1.2769800425
C  3.0433201790 -0.8007300496 -1.2317601442
C  3.0713503361 1.4226400852 0.0034800004
N  4.5273504257 1.5351600647 0.0009600001
H  0.6400099993 0.5124900341 -0.9080100656
H  0.6134500504 0.5248300433 0.8622300625
H  0.5885000229 -1.0127100945 -0.0132000009
H  2.7003502846 -0.2461500168 2.1819300652
H  4.0890603065 -0.9138001204 1.3080000877
H  2.5566003323 -1.7859702110 1.3229300976
H  2.7481203079 -0.2869400084 -2.1534900665
H  2.6216301918 -1.8119001389 -1.2657301426
H  4.1339402199 -0.9015500546 -1.2383100986
H  2.6825201511 1.9609302282 0.8765700459
H  2.6904702187 1.9429800510 -0.8835300207
H  4.9052605629 1.1496101618 0.8648101091
H  4.7882003784 2.5204701424 -0.0049200007
