17

C  1.0808600187 0.1962600201 0.0023100001
C  2.5737802982 -0.0692600012 0.1704700142
O  3.3346602917 1.0902200937 -0.2030600160
C  3.5450704098 1.2079401016 -1.6112501621
C  4.3671903610 0.0325000025 -2.1399102211
C  3.8445503712 -1.2727501392 -1.6229001284
C  3.0096404552 -1.3064501286 -0.5726600885
H  0.7986300588 1.1245400906 0.5107000470
H  0.4838300645 -0.6235600114 0.4157400429
H  0.8045900464 0.3159900308 -1.0510400534
H  2.7739901543 -0.2253200114 1.2366701365
H  4.0840702057 2.1440103054 -1.7916700840
H  2.5817501545 1.2878700495 -2.1281502247
H  5.4104804993 0.1316200048 -1.8193900585
H  4.3517899513 0.0391700044 -3.2348403931
H  4.1630501747 -2.1894500256 -2.1080400944
H  2.6378502846 -2.2604501247 -0.2098200172
