18

C  2.8286800385 -1.3292701244 -0.4633900523
C  2.3038001060 -0.1143300086 0.2861800194
O  2.0400800705 -0.5001300573 1.6385401487
C  3.3131601810 1.0353400707 0.3024600446
N  4.5063304901 0.8433500528 1.1570000648
C  3.4772202969 1.8703000546 -0.9444701076
C  2.7654802799 2.4438002110 0.2459600270
H  3.0586302280 -1.0863600969 -1.5048900843
H  2.0884301662 -2.1358902454 -0.4462600350
H  3.7351803780 -1.7259901762 0.0061400007
H  1.3537101746 0.2030100226 -0.1605900079
H  1.8043302298 0.3191300333 2.1085500717
H  4.2305502892 0.3165000379 1.9906101227
H  5.1751403809 0.2350400239 0.6836800575
H  2.8850903511 1.6267801523 -1.8185501099
H  4.4614205360 2.2605600357 -1.1778301001
H  3.2741603851 3.2162501812 0.8125001192
H  1.6946500540 2.5911402702 0.1721400023
