17

C  3.1432201862 -1.1380200386 -0.5293100476
C  2.4663901329 0.0704700053 0.0997600034
C  3.3429603577 1.3161700964 0.0551300049
C  3.6070904732 1.8654700518 -1.3643701077
N  3.4897003174 3.3530201912 -1.2677800655
C  2.9402003288 3.5341801643 -0.1073200107
N  2.6653101444 2.4476602077 0.6614000201
H  2.5000000000 -2.0190103054 -0.4399000406
H  4.0917005539 -1.3589500189 -0.0300600026
H  3.3433001041 -0.9748200774 -1.5923402309
H  2.2206702232 -0.1634400189 1.1434700489
H  1.5104701519 0.2556100190 -0.4067000449
H  4.2942805290 1.1449900866 0.5728400350
H  2.8740103245 1.5050001144 -2.0953202248
H  4.6086401939 1.5901300907 -1.7106801271
H  2.7011301517 4.5175604820 0.3277700245
H  2.7341201305 2.5552301407 1.6660901308
