14

C  0.9266800880 -0.0428600013 0.0106900008
C  2.4169402122 0.0444400012 0.0125300018
C  3.1712701321 1.2041701078 0.0525200032
N  2.7312700748 2.4785802364 0.0919600055
S  4.8526501656 0.8813600540 0.0490300059
C  4.5994801521 -0.8044900894 -0.0050900006
C  3.2610502243 -1.1181600094 -0.0199300013
H  0.4493100345 0.9413300753 0.0271900035
H  0.5801300406 -0.5980899930 0.8890800476
H  0.5807600021 -0.5676900148 -0.8865900636
H  3.3974502087 3.2262501717 -0.0767600089
H  1.7769401073 2.7108201981 -0.1571000218
H  5.4408001900 -1.4827901125 -0.0209700018
H  2.8953301907 -2.1370303631 -0.0497300029
