17

C  1.0425901413 -0.4357600510 0.2905100286
C  2.4036102295 -0.0611500069 -0.2925900221
C  2.7981300354 -1.0463000536 -1.3911100626
C  2.3880803585 1.3699400425 -0.8242700696
O  2.5385503769 1.6632701159 -2.0074601173
N  2.1962301731 2.3290603161 0.1649700105
N  2.2411003113 3.6966402531 -0.1805200130
H  0.7813700438 0.2036700100 1.1400101185
H  1.0408400297 -1.4721602201 0.6440800428
H  0.2494400144 -0.3275800347 -0.4576300383
H  3.1611104012 -0.1118000075 0.4996500313
H  2.0748202801 -1.0382001400 -2.2141301632
H  2.8546903133 -2.0667703152 -0.9980500937
H  3.7784001827 -0.7919500470 -1.8087902069
H  2.2246401310 2.0726001263 1.1494500637
H  1.3293601274 3.9390003681 -0.5816799998
H  2.8747003078 3.7781004906 -0.9880300760
