14

O  0.8538700938 0.0469900034 -0.0680700094
C  2.2587101460 -0.1505500078 -0.1728500128
C  2.9574801922 1.1852201223 0.0467500016
C  4.4785299301 1.0698200464 0.0310500022
C  4.9985504150 0.7285800576 -1.3012001514
C  5.4260406494 0.4522000253 -2.3897302151
H  0.4315600097 -0.8077800274 -0.2602600157
H  2.4751803875 -0.5571700931 -1.1653001308
H  2.5613801479 -0.8795900941 0.5855500102
H  2.6385700703 1.5953900814 1.0135301352
H  2.6147301197 1.9051700830 -0.7077300549
H  4.8062100410 0.3228500187 0.7626800537
H  4.9086103439 2.0288600922 0.3443500400
H  5.8053507805 0.2116200179 -3.3561103344
