19

C  2.9218502045 -1.2062400579 -0.5035100579
C  2.3684401512 0.0363100022 0.1761300117
C  3.3806602955 1.1461601257 0.2300200164
O  4.5487504005 0.8497600555 1.0080101490
C  3.6165401936 2.0139300823 -0.9777700901
C  2.9185802937 2.5838503838 0.2301900238
C  3.5931601524 3.6240804195 1.0581800938
H  2.1615500450 -1.9929401875 -0.5353200436
H  3.7928402424 -1.5968701839 0.0331200026
H  3.2316503525 -0.9877800345 -1.5309101343
H  2.0579700470 -0.2148600221 1.1967500448
H  1.4680202007 0.3613400161 -0.3584000468
H  4.3337802887 0.8014600873 1.9556101561
H  3.0247802734 1.8341801167 -1.8677201271
H  4.6365804672 2.3167700768 -1.1854400635
H  1.8543001413 2.7759001255 0.1493500024
H  4.6819100380 3.5102901459 1.0688900948
H  3.2335901260 3.5734403133 2.0905101299
H  3.3638303280 4.6201405525 0.6668400168
