15

O  1.3642201424 -0.3525200188 -0.9200100899
C  2.4702501297 -0.2832100093 -0.0357800014
C  2.8363401890 1.1541401148 0.1139200032
C  4.0532603264 1.6604400873 -0.1481800079
C  4.4115104675 3.1107501984 -0.0069600008
C  5.5047907829 3.2596602440 0.9640300870
C  6.3985505104 3.3874702454 1.7554000616
H  1.1581300497 -1.2949001789 -1.0341200829
H  3.2906703949 -0.8797500730 -0.4468200505
H  2.1751501560 -0.6992900372 0.9321400523
H  2.0398602486 1.8096601963 0.4585200548
H  4.8435502052 1.0028100014 -0.5048100352
H  3.5470802784 3.7039804459 0.3122000098
H  4.7236104012 3.4960103035 -0.9840301275
H  7.1914305687 3.4995002747 2.4590003490
