13

N  2.0214400291 -0.4019200504 -1.2919000387
C  2.5470702648 -0.0630800053 0.0223200005
C  2.9957501888 1.3447701931 0.0057800007
C  2.2489302158 2.4836401939 -0.1925500184
O  3.0420401096 3.5797202587 -0.1139500067
N  4.3445501328 3.1847202778 0.1453400105
C  4.2974905968 1.8521101475 0.2128200233
H  1.7581701279 -1.3860300779 -1.3041400909
H  2.7570002079 -0.2955200374 -1.9889901876
H  3.3750803471 -0.7343300581 0.2740499973
H  1.7659701109 -0.1996900141 0.7779400945
H  1.2046201229 2.6721103191 -0.3954300582
H  5.2133903503 1.3115100861 0.4117200077
