18

C  3.0615904331 -1.1673899889 -0.4967100322
C  2.4728300571 0.0622500032 0.1754200161
C  3.4408402443 1.2065600157 0.1682500243
C  3.5333201885 2.1222400665 -1.0270400047
C  2.9287700653 2.6236102581 0.2592300177
C  3.6526803970 3.6302101612 1.0865501165
H  2.3465702534 -1.9954701662 -0.4714900255
H  3.9779102802 -1.4903801680 0.0086300010
H  3.3112802505 -0.9612200856 -1.5427900553
H  2.2173199654 -0.1796300113 1.2132000923
H  1.5392601490 0.3364200294 -0.3298300505
H  4.3595404625 0.9649100900 0.6928800941
H  2.8673303127 1.9517401457 -1.8656901121
H  4.5163002014 2.4788401127 -1.3144301176
H  1.8565300703 2.7854602337 0.2808900177
H  4.7368903160 3.4802103043 1.0630900860
H  3.3226001263 3.5675902367 2.1279001236
H  3.4405002594 4.6396002769 0.7212800384
