21

C  1.1678800583 0.2839200199 0.1120100096
C  2.6729402542 -0.0276900008 -0.0014900002
C  3.0709803104 -0.9219600558 1.1853001118
C  2.9201900959 -0.8112600446 -1.3050401211
C  3.4333403111 1.2899000645 -0.0792100057
C  3.8879401684 2.0555300713 1.1399000883
C  4.9043803215 1.4073700905 0.2388200164
H  0.8213700652 0.8855100870 -0.7361400723
H  0.9525200725 0.8524301052 1.0239001513
H  0.5701900721 -0.6339800358 0.1371000111
H  2.8792402744 -0.4326600134 2.1455700397
H  4.1303105354 -1.1952500343 1.1534401178
H  2.4970602989 -1.8562002182 1.1807501316
H  2.6174600124 -0.2282400280 -2.1824002266
H  2.3592603207 -1.7522801161 -1.3185800314
H  3.9830904007 -1.0504101515 -1.4240201712
H  3.0805501938 1.8905901909 -0.9159600735
H  3.7477104664 1.6368501186 2.1281702518
H  3.8057703972 3.1369800568 1.1145900488
H  5.5058708191 2.0527801514 -0.3925000429
H  5.4454207420 0.5493900776 0.6170000434
