19

C  1.0371800661 -0.0487900041 0.0983900055
C  2.5558903217 0.0428000018 -0.0124200005
C  2.9713001251 0.1495300084 -1.4820501804
C  3.1226201057 1.1822100878 0.8313601017
C  4.4886407852 0.6632000208 1.2091600895
C  4.2328705788 -0.8186100125 1.3782801628
O  3.1357302666 -1.1651401520 0.5193200707
H  0.7287300229 -0.2014900148 1.1394701004
H  0.6551600695 -0.9091801047 -0.4632200301
H  0.5520000458 0.8569101095 -0.2786500156
H  4.0611100197 0.1390900016 -1.5948201418
H  2.5839502811 1.0641400814 -1.9432401657
H  2.5998301506 -0.7101900578 -2.0522100925
H  2.5319402218 1.3200501204 1.7457001209
H  3.1560301781 2.1419401169 0.3075200319
H  5.1977005005 0.8337900639 0.3909300268
H  4.8992400169 1.1278300285 2.1099801064
H  5.1050004959 -1.4244101048 1.1190700531
H  3.9376401901 -1.0546600819 2.4057300091
