19

C  2.3347504139 -0.4803700447 -1.4272501469
C  2.4836101532 0.0345700011 -0.0034900003
O  3.1802902222 -0.9362100959 0.7728600502
C  3.2662801743 1.3390400410 0.0232100021
C  2.5420103073 2.6073603630 -0.5085600615
C  3.2574701309 3.3956804276 0.6067400575
C  3.3373403549 2.0713400841 1.3919501305
H  1.7771601677 0.2245100141 -2.0514502525
H  1.8134801388 -1.4434400797 -1.4333301783
H  3.3137502670 -0.6468700171 -1.8910300732
H  1.4924901724 0.1626500189 0.4447400272
H  4.0475602150 -1.0858701468 0.3587200344
H  4.2655606270 1.2231401205 -0.4239300191
H  1.4510201216 2.5875003338 -0.4001900256
H  2.7919600010 2.9028103352 -1.5309001207
H  4.2349405289 3.7923502922 0.3094800115
H  2.6753101349 4.1928601265 1.0751100779
H  4.2550401688 1.9163401127 1.9654000998
H  2.4751803875 1.8980101347 2.0467500687
