12

O  1.3965301514 0.3968200386 -1.0880399942
C  1.8914101124 0.3781900406 0.0336300060
C  3.0730602741 1.2054301500 0.3728700280
N  4.0022101402 1.4697501659 -0.7425800562
C  3.2182803154 2.5875303745 -0.2038900107
C  3.9926204681 3.5944402218 0.5464400649
O  3.5655503273 4.0489006042 1.6001201868
H  1.4857001305 -0.2515400052 0.8428100944
H  3.5328903198 1.0051500797 1.3339900970
H  3.5742802620 1.1341000795 -1.6149601936
H  2.4221301079 2.9735703468 -0.8297901154
H  4.9497704506 3.9210302830 0.1066900119
