17

C  1.0610001087 0.0036500003 0.1649600118
C  2.3941001892 -0.0028800003 0.0638900027
C  3.2518904209 1.2312901020 0.0071500009
C  4.4027004242 0.7904900312 -0.8827600479
C  4.6267304420 -0.6730200648 -0.5183600783
C  3.2560803890 -1.1575000286 -0.1257700026
C  2.9344902039 -2.4462802410 0.0384100042
H  0.4744900465 -0.9088100791 0.1464500129
H  0.5136200190 0.9367300868 0.2590300143
H  3.6135401726 1.4805301428 1.0116500854
H  2.7323801517 2.1000201702 -0.4072400331
H  4.1212501526 0.8783100843 -1.9398001432
H  5.3011403084 1.3949100971 -0.7267000675
H  5.0443406105 -1.2305800915 -1.3637701273
H  5.3122906685 -0.7529400587 0.3345200121
H  1.9434701204 -2.7593801022 0.3453500271
H  3.6703503132 -3.2277402878 -0.1183300093
