19

C  1.1903500557 1.4244401455 -1.4317901134
O  2.5815503597 1.6733901501 -1.2743201256
C  3.0873901844 1.0815100670 -0.0686000064
C  4.5935401917 1.3871800900 0.0442900024
C  5.1505408287 0.8585801125 1.3636801243
C  5.3775005341 0.8122600317 -1.1373300552
O  4.7693705559 2.8094201088 0.0323200040
H  0.8623100519 1.8857301474 -2.3670802116
H  0.6266100407 1.8684701920 -0.6059400439
H  0.9973701239 0.3487200439 -1.4858601093
H  2.9105503559 -0.0004100000 -0.0852400064
H  2.5514602661 1.5241700411 0.7797300816
H  4.6310706139 1.3120601177 2.2156500816
H  6.2094407082 1.1196300983 1.4739500284
H  5.0517902374 -0.2295200229 1.4362500906
H  5.0465602875 1.2489001751 -2.0864601135
H  5.2705502510 -0.2755400240 -1.1990801096
H  6.4436202049 1.0508900881 -1.0482900143
H  4.2173504829 3.1306302547 -0.7087000608
