12

O  1.4096601009 0.1593300104 0.8296100497
C  2.4063103199 -0.0803700015 0.1730200052
N  2.8317201138 -1.3117401600 -0.2684400082
C  4.0355606079 -1.2619200945 -1.0657801628
C  4.4435100555 0.1778500080 -1.0318500996
O  3.5652003288 1.1058200598 -1.6750001907
C  3.3963901997 0.9292300940 -0.2570700049
H  2.2596802711 -2.1330702305 -0.1254300028
H  4.7829298973 -1.9127300978 -0.6044400930
H  3.8094902039 -1.6060301065 -2.0785601139
H  5.4914002419 0.3976500332 -0.9251300693
H  3.6850101948 1.7167501450 0.4211600125
