13

O  1.1734300852 -0.0161000006 0.4299300313
C  2.5338401794 0.0595800020 -0.0001100000
C  2.6180801392 -0.3781700432 -1.4601800442
C  4.0061903000 -0.5803000331 -1.9051700830
C  5.1373205185 -0.7418701053 -2.2765600681
C  3.0547204018 1.4797501564 0.1709300131
O  2.4167501926 2.3494403362 0.7629800439
H  1.0329400301 0.7412500381 1.0354200602
H  3.1282701492 -0.5940700769 0.6476100683
H  2.1263601780 0.3630100489 -2.1024801731
H  2.0542101860 -1.3101000786 -1.5934400558
H  6.1370105743 -0.8894600868 -2.6160101891
H  4.0743002892 1.6762501001 -0.2009800225
