15

C  0.9876400828 0.0168300029 0.2522000074
C  2.4699101448 -0.1479700059 0.0452300049
C  3.0052201748 -1.3721700907 -0.1189600080
C  3.3219902515 1.1021201611 0.0135100009
O  2.8160502911 1.9866100550 -0.9788200855
C  3.3399801254 1.7706801891 1.3241502047
C  3.3583302498 2.3235402107 2.3905403614
H  0.7800100446 0.5183000565 1.2025001049
H  0.4674600363 -0.9471400976 0.2723700106
H  0.5482100248 0.6072600484 -0.5579600334
H  2.3929901123 -2.2689602375 -0.1038900092
H  4.0707402229 -1.5109701157 -0.2778100371
H  4.3496503830 0.8578600883 -0.2785400152
H  2.0785701275 2.4681103230 -0.5704900026
H  3.3790502548 2.8123600483 3.3375101089
