14

N  0.9411700368 -0.0110800005 -0.2153500170
C  2.3900201321 -0.0042700004 -0.0702700093
C  2.8206200600 1.2444500923 0.6399800777
C  3.5592203140 1.1931900978 1.7581901550
O  3.9711604118 0.0206300020 2.3537902832
C  3.5688600540 -1.1641900539 1.7754901648
C  2.8313202858 -1.2385201454 0.6592800617
H  0.6647700071 -0.8311000466 -0.7498200536
H  0.6598600745 0.7912700772 -0.7736400366
H  2.8443002701 -0.0101300012 -1.0682001114
H  2.5367903709 2.2054302692 0.2273200154
H  3.9029502869 2.0556201935 2.3104000092
H  3.9203503132 -2.0153901577 2.3411002159
H  2.5555200577 -2.2079601288 0.2606400251
