15

C  0.8731400371 0.3289700150 0.1003400087
N  2.3123102188 0.0763600096 0.1183600053
C  3.0152201653 1.1562501192 0.0131200012
N  4.3942699432 1.1940600872 0.0071600005
O  4.9793405533 -0.0753699988 0.1289499998
C  5.2099504471 2.2963600159 -0.0994100049
C  6.5467104912 2.3416202068 -0.1058300138
H  0.3518500328 -0.5510700345 0.4893800616
H  0.5256500244 0.5019000173 -0.9231700301
H  0.5925300121 1.1807801723 0.7299600244
H  2.5590903759 2.1583900452 -0.0865000114
H  4.1958003044 -0.6638800502 0.1861900091
H  4.6521706581 3.2250702381 -0.1869700104
H  7.1367502213 1.4344501495 -0.0203600023
H  7.0748004913 3.2839202881 -0.1963500232
