19

C  2.4490101337 -0.4853700399 -1.4423501492
C  2.5390200615 0.0291700009 -0.0069900006
N  3.2367103100 -0.9615901113 0.8277000785
C  3.2839503288 1.3706400394 0.0172200017
C  2.5973701477 2.6125802994 -0.6067700386
C  3.1899502277 3.3625903130 0.6009300947
N  3.1654603481 2.0766901970 1.3303601742
H  1.8978801966 0.2193700224 -2.0748002529
H  1.9272001982 -1.4481199980 -1.4852200747
H  3.4429101944 -0.6157600284 -1.8867801428
H  1.5228600502 0.1549100131 0.3861800134
H  4.1358103752 -1.1926900148 0.4100700319
H  2.6984500885 -1.8261901140 0.8409600258
H  4.3297004700 1.2692601681 -0.3126800060
H  1.5012401342 2.5773801804 -0.6177700162
H  2.9600002766 2.9221801758 -1.5899500847
H  4.1980800629 3.7597103119 0.4358400404
H  2.5597701073 4.1467103958 1.0281801224
H  3.9386603832 1.8965702057 1.9677301645
