19

C  0.9022300839 -0.0419900045 0.2310700119
C  2.4315803051 0.0034300003 0.0806700066
C  2.8320803642 1.3069001436 -0.6354200244
C  3.9624505043 1.2622200251 -1.6602401733
C  4.3755502701 -0.0848600045 -2.1383399963
C  3.9205904007 -1.2334800959 -1.6285701990
C  2.9278502464 -1.3234900236 -0.5230000615
H  0.5301900506 0.8522300720 0.7426800728
H  0.5883400440 -0.9175300598 0.8081000447
H  0.4181000292 -0.0957700089 -0.7522900105
H  2.8423001766 0.0606900044 1.0988500118
H  3.1056201458 2.0432403088 0.1353200227
H  1.9548201561 1.7475501299 -1.1249899864
H  4.8444204330 1.7658600807 -1.2522901297
H  3.6569402218 1.8550101519 -2.5343604088
H  5.0982503891 -0.1178100109 -2.9486203194
H  4.2842302322 -2.1733000278 -2.0378301144
H  2.0846102238 -1.9242501259 -0.8843500614
H  3.3828303814 -1.9144101143 0.2838800251
