12

C  0.9111800790 0.0734200105 -0.0077900006
C  2.3994901180 0.0063200006 -0.0007900001
C  3.2291400433 1.0585100651 0.0037300002
C  4.6401300430 0.6267700791 0.0113500012
O  5.5845203400 1.3976700306 0.0167000014
N  4.7087602615 -0.7419900894 0.0117200008
S  3.2169802189 -1.5300301313 0.0034500002
H  0.5566000342 1.1097700596 -0.0012800001
H  0.4966400266 -0.4246700406 0.8749400377
H  0.5058900118 -0.4108100235 -0.9024300575
H  2.9644203186 2.1021900177 0.0024400002
H  5.6011900902 -1.2169001102 0.0171900019
