21

C  0.9330200553 -0.3134500086 0.0479200035
C  2.4717402458 -0.3198300302 0.0620200038
C  2.9579303265 -0.9682900310 1.3661500216
N  2.9425003529 -1.1346300840 -1.0646800995
C  2.9825503826 1.1353101730 -0.0841300115
C  4.5062804222 1.2895301580 -0.0834400058
N  4.8693804741 2.6978602409 -0.2526900172
H  0.5425300598 0.1265800148 -0.8771300316
H  0.5350000262 0.2702400386 0.8862500787
H  0.5261000395 -1.3281100988 0.1302700043
H  2.6839902401 -0.3569599986 2.2338001728
H  4.0450901985 -1.0996201038 1.3793501854
H  2.5124902725 -1.9601401091 1.5079500675
H  2.5617301464 -0.7696700692 -1.9368602037
H  2.5815203190 -2.0841801167 -0.9786200523
H  2.5664801598 1.7419701815 0.7327700853
H  2.5816900730 1.5636401176 -1.0139701366
H  4.9595503807 0.7066900134 -0.8916500807
H  4.9292802811 0.9412701130 0.8632600904
H  4.5378503799 3.0224201679 -1.1601600647
H  5.8857603073 2.7740302086 -0.2819100022
