13

N  1.0402801037 -0.0139600011 0.3377500176
C  2.4700002670 0.0000000000 0.0000000000
C  2.6527502537 -0.7215200663 -1.3283500671
N  3.4011702538 -0.2816900313 -2.2938301563
O  3.3781802654 -1.2049801350 -3.3460502625
C  2.9520201683 1.3611700535 0.0000000000
C  3.3493003845 2.4830701351 0.0000000000
H  0.9067500830 0.5241200328 1.1929900646
H  0.7515900731 -0.9654600620 0.5536200404
H  3.0027902126 -0.5897500515 0.7545700669
H  2.1492400169 -1.7014300823 -1.4204201698
H  3.9141902924 -0.7563000917 -4.0269002914
H  3.7025702000 3.4879803658 -0.0152000012
