16

N  0.9880800843 0.0413700044 -0.5538300276
C  2.1977100372 -0.0007700000 0.2663400173
C  3.4320504665 0.7509200573 -0.1575300097
C  3.6975002289 1.2060501575 -1.5807400942
C  3.8541202545 -0.0646700040 -2.3776202202
C  3.6749203205 -1.1247100830 -1.5727201700
C  3.4184403419 -0.7684500217 -0.1666200012
H  0.3839800358 0.8115100861 -0.2755400240
H  0.4462600350 -0.8133300543 -0.4417800307
H  1.9965901375 -0.0172100011 1.3366000652
H  4.0192804337 1.2684301138 0.5876800418
H  4.6203603745 1.7929902077 -1.6272801161
H  2.8710703850 1.8125300407 -1.9629901648
H  4.0437803268 -0.1016600057 -3.4389202595
H  3.7084202766 -2.1527702808 -1.9078501463
H  4.0055804253 -1.2877600193 0.5796300173
