17

C  1.8607301712 -0.6471599936 -0.0120300008
C  3.3454303741 -0.3323300183 0.0349499993
N  3.5214302540 1.1067399979 -0.1765800118
C  4.7548003197 1.4707401991 -0.1310200095
N  5.1630501747 2.7578899860 -0.2981900275
C  6.4298605919 3.2693603039 -0.2722100019
C  6.7757902145 4.5475707054 -0.4442400336
H  1.6908301115 -1.7159001827 0.1497400105
H  1.4337501526 -0.3735500574 -0.9825300574
H  1.3185501099 -0.0913300067 0.7601000667
H  3.8607103825 -0.9022600651 -0.7472800612
H  3.7472004890 -0.6317300200 1.0102200508
H  5.5846605301 0.7621900439 0.0485400036
H  4.4098906517 3.4171802998 -0.4639200270
H  7.2017402649 2.5236802101 -0.0900700092
H  6.0376300812 5.3207206726 -0.6280700564
H  7.8179607391 4.8479800224 -0.4039900303
