13

N  0.9938700795 0.0162100010 0.2407800257
C  2.3723900318 0.0319400020 -0.0085600009
C  3.0749604702 1.2340401411 -0.0087700011
C  4.4555006027 1.1999500990 -0.1351400167
N  5.1747202873 0.0619200058 -0.2217200100
C  4.4787907600 -1.0917100906 -0.1509200037
C  3.0994203091 -1.1556500196 -0.0253300015
H  0.5110100508 0.8554300666 -0.0650400072
H  0.5280100107 -0.8282300234 -0.0766500086
H  2.5653402805 2.1853899956 0.0862200037
H  5.0362906456 2.1175301075 -0.1578100175
H  5.0780606270 -1.9966201782 -0.1862900108
H  2.6091401577 -2.1182401180 0.0566400029
