19

C  0.9816100597 -0.3345500231 0.2630000114
C  2.4934701920 -0.3143700063 0.0954600126
C  3.0181202888 1.1130400896 -0.0611100011
C  4.5123806000 1.1319200993 -0.2231500298
C  5.1415605545 1.6308901310 -1.2990801334
C  6.6239204407 1.6711100340 -1.4677001238
O  6.9612503052 0.9323900342 -2.6300902367
H  0.6270200610 -1.3632301092 0.3793700337
H  0.4851000309 0.0993500054 -0.6103400588
H  0.6779500842 0.2320600152 1.1486101151
H  2.7653803825 -0.9143100381 -0.7819000483
H  2.9563503265 -0.7924400568 0.9678300619
H  2.7584900856 1.7028900385 0.8253500462
H  2.5298402309 1.5930600166 -0.9177300930
H  5.0938606262 0.7237900496 0.6030100584
H  4.5627703667 2.0501000881 -2.1188600063
H  7.1571106911 1.2420500517 -0.6135600805
H  6.9620404243 2.7033402920 -1.6021901369
H  6.5532307625 0.0554600023 -2.5301201344
