15

N  1.0775800943 -0.0841500089 0.2064100206
C  2.4171302319 0.1469600201 -0.3178400397
C  2.5597102642 -0.6063100100 -1.6076700687
C  3.4780001640 -1.5540401936 -1.8454900980
C  2.5960900784 1.6215701103 -0.5325200558
C  3.5519001484 2.3692300320 0.0359500013
H  1.0053200722 0.3828800321 1.1083601713
H  0.9809400439 -1.0789301395 0.4011900425
H  3.1456201077 -0.2191100121 0.4166500270
H  1.8538202047 -0.3558200300 -2.3977103233
H  4.2050900459 -1.8467200994 -1.0952800512
H  3.5154602528 -2.0572900772 -2.8065202236
H  1.8841501474 2.1050801277 -1.1997501850
H  4.2874503136 1.9424201250 0.7099200487
H  3.6140003204 3.4341003895 -0.1678200215
