11

N  1.0000001192 0.0000000000 0.0000000000
C  2.1510102749 0.0000000000 0.0000000000
C  3.5950102806 0.0000000000 0.0000000000
C  4.1888704300 -1.2244400978 0.6488800645
O  4.4708604813 -0.8487700820 2.0043900013
N  4.6103801727 0.5589200258 2.0443701744
C  4.1159701347 1.0111900568 0.9429600835
H  3.9911303520 0.1624700129 -1.0056501627
H  5.1406102180 -1.5007001162 0.1806200147
H  3.5320401192 -2.1002202034 0.6433800459
H  4.0649604797 2.0840001106 0.7059800625
