16

C  0.8659200668 -1.2329800129 0.8424000144
C  1.1542900801 -0.3565400243 -0.3409900367
N  1.0367701054 1.1107801199 -0.2817800343
C  -0.1859200150 1.6461302042 0.3247900307
C  -1.4237501621 0.8221400380 0.1135800034
C  -1.3639501333 -0.4867300391 -0.1812400073
C  -0.0947400033 -1.2053600550 -0.3215100169
H  1.4727101326 -2.1217103004 0.9695401192
H  0.5710100532 -0.7752700448 1.7784401178
H  1.9495401382 -0.6938600540 -1.0030100346
H  1.8477600813 1.5272800922 0.1715800166
H  -0.0365500040 1.7715700865 1.4033501148
H  -0.3536500335 2.6443102360 -0.0926900059
H  -2.3846702576 1.3116201162 0.2340200245
H  -2.2831902504 -1.0497500896 -0.3171200156
H  -0.1192200035 -2.0666801929 -0.9794400930
