16

C  0.8603300452 0.5639899969 -0.6477200389
C  1.6485301256 1.8653202057 -0.6416000128
N  2.8199701309 1.7206501961 0.2279900312
C  4.0713605881 1.5128800869 -0.4945200384
C  3.7481102943 2.8534803391 0.1176300123
C  4.3859500885 3.2522501945 1.3903100491
O  5.2866101265 4.0832104683 1.4043700695
H  -0.0344200023 0.6678799987 -1.2708400488
H  0.5346300602 0.2929300070 0.3629200161
H  1.4576901197 -0.2621400058 -1.0494600534
H  1.0076000690 2.6622302532 -0.2471400201
H  1.9016200304 2.1382901669 -1.6738401651
H  4.0483903885 1.4200301170 -1.5738701820
H  4.8050203323 0.8841301203 -0.0036100002
H  3.4877700806 3.6681501865 -0.5479300022
H  4.0150103569 2.7780001163 2.3147902489
