15

C  1.7935202122 0.1523300111 -1.3044201136
O  3.0747103691 0.3329100311 -0.7135300636
C  3.3836801052 1.5669400692 -0.1687900126
C  2.5510201454 2.6247200966 -0.1717000157
C  4.7254405022 1.6468601227 0.4481000304
C  5.9199705124 1.7784800529 -0.4649100304
O  5.5397505760 2.8336503506 0.4242900312
H  1.7312101126 -0.8796700835 -1.6623300314
H  1.6625001431 0.8151900768 -2.1656501293
H  0.9969301224 0.3002500236 -0.5681100488
H  1.5618801117 2.6138701439 -0.6089500189
H  2.8666400909 3.5629601479 0.2771600187
H  4.8350305557 1.0058300495 1.3168101311
H  5.7591304779 1.9380201101 -1.5236301422
H  6.8102307320 1.2129200697 -0.2229200304
