12

C  0.9218900800 -0.0972400010 -0.0056000007
C  2.3904399872 0.0367700048 -0.0029800003
C  3.1679902077 1.1702401638 -0.0038500002
O  2.9554903507 2.4703102112 -0.0069100005
O  4.4767103195 0.8082400560 -0.0007300000
C  4.4233207703 -0.5542200804 0.0018500001
N  3.2134802341 -1.0697500706 0.0006300000
H  0.4302000403 0.8804700971 0.0041900002
H  0.5895000100 -0.6543700695 0.8755700588
H  0.5912300944 -0.6359800100 -0.8988301158
H  3.8511502743 2.8503601551 -0.0060300003
H  5.3701701164 -1.0755400658 0.0046100006
