14

O  1.0362501144 0.0820100084 -0.0138700008
C  2.4499902725 0.0064600008 -0.0328800008
C  2.9998402596 1.3284500837 0.4331500232
C  3.7303700447 1.1483000517 1.5489600897
C  3.7629203796 -0.2430500090 2.0172202587
N  4.3684701920 -1.2769201994 1.1936100721
C  2.9453001022 -1.0058000088 0.9876600504
H  0.7080500126 -0.7797500491 -0.3188400269
H  2.7948901653 -0.2341000289 -1.0437500477
H  2.8209002018 2.2686600685 -0.0637800023
H  4.2280101776 1.9465901852 2.0841901302
H  3.5895602703 -0.4470200539 3.0659801960
H  4.9437303543 -0.8522500396 0.4644700289
H  2.2340202332 -1.7462301254 1.3196800947
