17

C  0.9926400781 -0.0591600053 0.0745400041
C  2.5067501068 -0.0034600003 0.0327200033
C  3.1810102463 1.0787800550 0.9095600247
C  4.2004003525 -0.0287800021 1.2428201437
N  3.1351301670 -1.0151300430 0.9299700856
C  3.6780703068 -2.1262800694 0.1560800076
H  0.6219000816 -0.9526700377 -0.4395000339
H  0.5648300052 0.8144201040 -0.4288000464
H  0.6087300777 -0.0747500062 1.1010100842
H  2.8845403194 0.0035700004 -1.0000100136
H  2.5906102657 1.4128201008 1.7710602283
H  3.5756802559 1.9508401155 0.3821300268
H  5.0727400780 -0.0339800045 0.5772200823
H  4.5476403236 -0.0439800024 2.2799100876
H  2.8613700867 -2.7527601719 -0.2197600156
H  4.3019104004 -2.7575201988 0.7981400490
H  4.2852005959 -1.8129601479 -0.7020100355
