14

C  1.0905001163 -0.0501100011 -0.0842900053
C  2.5594801903 0.1669100076 -0.1070300117
N  3.1367304325 1.2585400343 -0.5015600324
O  4.5566606522 1.1205201149 -0.3666900396
C  4.8049006462 -0.1472100168 0.2875500321
C  4.5741806030 -1.4032601118 -0.4991000295
C  3.4879403114 -0.8506700397 0.3850700557
H  0.8628600836 -1.1184300184 -0.1234700084
H  0.6265600920 0.4496900141 -0.9389700890
H  0.6813600659 0.3699300289 0.8388000727
H  5.4754805565 -0.1689300239 1.1359500885
H  5.0859403610 -2.3017501831 -0.1762200147
H  4.4664406776 -1.3137201071 -1.5741600990
H  3.2524402142 -1.3527400494 1.3132400513
