19

C  2.0652301311 -0.3518200219 1.5292001963
N  3.4099502563 0.2055200040 1.4640702009
C  3.6454303265 0.8343800306 0.1615500003
C  5.0328502655 1.4501202106 0.1458400190
C  5.2310404778 2.6275901794 1.0688000917
C  6.2208805084 0.5523400903 -0.1374500096
N  5.7349905968 1.4769301414 -1.1525000334
H  1.9035801888 -0.7963200212 2.5155701637
H  1.9186102152 -1.1343201399 0.7783500552
H  1.3066500425 0.4251100123 1.3905102015
H  4.0872902870 -0.5458500385 1.5898700953
H  2.9064302444 1.6228400469 -0.0241000019
H  3.5446503162 0.0892700106 -0.6381900311
H  6.1982102394 3.1171801090 0.9107400775
H  5.1933903694 2.3052501678 2.1139900684
H  4.4483504295 3.3752202988 0.9100700617
H  6.0472302437 -0.4983200133 -0.3350600004
H  7.1781706810 0.7827000618 0.3141000271
H  6.3402509689 2.2970402241 -1.2231001854
