14

N  0.8999601007 0.2610100210 0.8145400882
C  2.1574802399 -0.3874900341 0.4114000201
C  2.9751102924 0.5130000114 -0.5140200257
O  2.4934601784 1.3202501535 -1.3021000624
O  4.3079204559 0.2034000158 -0.3708000481
C  5.1957702637 0.9097200632 -1.1821800470
C  6.5151805878 0.8249000311 -1.0040900707
H  0.2733800113 -0.4315300286 1.2187501192
H  0.4384300113 0.6259100437 -0.0222800002
H  1.9457801580 -1.3169801235 -0.1261700094
H  2.7357003689 -0.6130400300 1.3122200966
H  4.7385101318 1.5114400387 -1.9580701590
H  6.9372305870 0.2106200159 -0.2159500122
H  7.1979002953 1.3743801117 -1.6434601545
