15

C  1.8930101395 0.1725400090 -0.7968500853
O  1.6997001171 -0.0602200069 0.6031400561
C  0.5131500363 0.0719500035 -0.1936100125
C  -0.3347100317 1.2416400909 0.1409600228
C  -1.7252601385 0.7034300566 -0.1597300172
O  -1.6630401611 -0.7102600932 0.1019700095
C  -0.3416700363 -1.1430400610 -0.2762900293
H  2.2642903328 1.1453800201 -1.0934901237
H  2.2644701004 -0.6522200108 -1.3920201063
H  -0.2474000156 1.4862900972 1.2050400972
H  -0.1118700132 2.1363701820 -0.4469400346
H  -2.4996001720 1.1635199785 0.4604100287
H  -1.9879001379 0.8411800861 -1.2150200605
H  -0.3877200186 -1.5282300711 -1.3000100851
H  -0.0292700026 -1.9442801476 0.3990000188
