15

C  1.0066300631 -0.0150900008 0.0730100051
C  2.3262600899 0.1477200091 -0.0531100035
C  3.0187902451 1.4049800634 0.1764000058
C  4.3380403519 1.2224800587 0.0039800005
C  4.6920504570 -0.1534000188 -0.3797200322
C  4.3965401649 -1.3078300953 0.5362700224
C  3.3346002102 -0.8722200394 -0.4350800514
H  0.5484000444 -0.9814100862 -0.1089500114
H  0.3554900289 0.8030400872 0.3614600301
H  2.5388102531 2.3293602467 0.4587900341
H  5.0813302994 1.9996701479 0.1255600005
H  5.3695302010 -0.2840400338 -1.2133100033
H  4.9014701843 -2.2472102642 0.3409500420
H  4.2482204437 -1.1117001772 1.5926600695
H  3.1213302612 -1.4798600674 -1.3055900335
