14

C  1.5747001171 -0.6660400033 1.1128300428
C  2.3199601173 -0.3264400363 0.0526800044
C  3.0152699947 0.9935100675 -0.1034900099
C  4.5036206245 0.8162600994 -0.1687900126
C  5.2561106682 1.1724400520 -1.2214901447
C  6.6669702530 0.9957200289 -1.2405900955
N  7.8176708221 0.8562600613 -1.2617001534
H  1.0919100046 -1.6376202106 1.1638001204
H  1.4286102057 0.0087800007 1.9508101940
H  2.4282500744 -1.0405200720 -0.7619400620
H  2.7807703018 1.6610801220 0.7343200445
H  2.6368503571 1.4814401865 -1.0098100901
H  4.9748601913 0.3791400492 0.7115300894
H  4.8081202507 1.6138601303 -2.1051101685
