17

C  0.8666900992 0.1175500080 -0.1762300134
C  2.3414201736 -0.1336899996 0.0107700005
C  2.6956601143 -1.5783301592 0.2223600149
C  3.2020702362 0.9024300575 0.0200400017
C  4.6852002144 0.8737700582 0.1489200145
C  5.4821300507 -0.2022200227 -0.5379999876
O  5.2385501862 1.7826801538 0.7675600648
H  0.6411500573 1.1770100594 -0.3378000259
H  0.3095100224 -0.2098000199 0.7076400518
H  0.4976300299 -0.4357400537 -1.0460900068
H  1.9722502232 -2.0519602299 0.8952500820
H  3.6744904518 -1.7116700411 0.6875600219
H  2.6793801785 -2.1163902283 -0.7303800583
H  2.8261802197 1.9212301970 -0.0546500050
H  4.9006900787 -0.6894600391 -1.3244200945
H  5.8159704208 -0.9396900535 0.1952700168
H  6.3538403511 0.2559100091 -1.0149600506
