16

C  1.1518801451 -0.2483100146 0.2452100217
C  2.5554699898 0.1291800141 -0.2230600268
C  2.8711202145 -0.5438600183 -1.5663701296
O  4.2334203720 -0.3527000248 -1.9256602526
C  2.6916301250 1.6543800831 -0.3123400211
O  4.0223703384 2.0171101093 -0.6678300500
H  0.9325800538 0.2023400217 1.2183400393
H  1.0564900637 -1.3337501287 0.3508500159
H  0.3915300369 0.0914900079 -0.4656600356
H  3.2892603874 -0.2301900238 0.5106500387
H  2.2413902283 -0.1481200159 -2.3695800304
H  2.6992602348 -1.6231201887 -1.5046302080
H  4.3990001678 0.6133000255 -1.8805601597
H  2.4504799843 2.1315102577 0.6432400346
H  2.0185000896 2.0634400845 -1.0727601051
H  4.5899600983 1.8024801016 0.0957600102
