15

C  2.2967400551 -0.5827500224 -1.4005700350
C  2.4523000717 -0.0227100011 0.0047300006
C  2.9621403217 1.3878201246 0.0025900002
C  2.1626400948 2.5159900188 -0.0200900007
S  3.0638401508 3.9692902565 -0.0170500018
C  4.5415301323 3.1152403355 0.0165700018
C  4.3495402336 1.7510501146 0.0249000005
H  1.9247701168 -1.6115400791 -1.3604301214
H  3.2539703846 -0.5876300931 -1.9333801270
H  1.5891101360 0.0123000015 -1.9880402088
H  3.1396303177 -0.6591801047 0.5749900341
H  1.4859100580 -0.0644700006 0.5213400126
H  1.0818300247 2.5587401390 -0.0399500020
H  5.4805407524 3.6506402493 0.0285300035
H  5.1681203842 1.0409201384 0.0448600054
