17

C  3.0170803070 -1.1636801958 -0.5136900544
C  2.4421501160 0.0682400092 0.1660600156
C  3.4269101620 1.1979300976 0.1756300181
C  3.5401501656 2.1224203110 -1.0067300797
C  2.9344403744 2.6228601933 0.2807800472
C  3.6839501858 3.5494303703 1.0775201321
C  4.3094506264 4.3262400627 1.7458200455
H  2.2897300720 -1.9811801910 -0.5006000400
H  3.9251401424 -1.5047801733 -0.0055500004
H  3.2764701843 -0.9516100883 -1.5561301708
H  2.1765301228 -0.1792500168 1.2000000477
H  1.5157700777 0.3605100214 -0.3424400091
H  4.3391704559 0.9365900755 0.7024000287
H  2.8757402897 1.9744302034 -1.8504800797
H  4.5303802490 2.4657902718 -1.2856900692
H  1.8593502045 2.7801802158 0.2791100144
H  4.8653903008 5.0146102905 2.3383202553
