15

O  1.1515600681 0.5700600147 0.6996800900
N  2.3010201454 1.3699301481 0.6870600581
C  3.1119403839 0.9301900864 -0.2201400101
N  4.3409600258 1.4434601068 -0.5554700494
C  5.1100106239 2.0670101643 0.4831400514
C  6.3511900902 1.4318901300 -0.1456599981
C  5.3800802231 0.5128300190 -0.8879400492
H  0.6063200831 1.0043200254 1.3816701174
H  2.8381102085 0.0625500083 -0.8497700691
H  4.8849906921 1.7016001940 1.4908200502
H  5.0642900467 3.1581003666 0.4505200386
H  6.9187307358 2.1052801609 -0.7972800732
H  7.0339107513 0.9367900491 0.5496500134
H  5.5401105881 0.4191800356 -1.9644801617
H  5.2526903152 -0.4743500352 -0.4304000139
