15

C  1.0363800526 0.0444900021 0.0187200010
C  2.5209002495 -0.0369200036 0.0169500019
C  3.2496800423 -1.1630800962 -0.0398200043
C  4.6334004402 -0.6781900525 -0.0305700041
N  5.6463303566 -1.4469200373 -0.1940700114
N  4.6894702911 0.6736900806 0.1339700073
C  3.3475902081 1.2216100693 0.0725000054
H  0.5778100491 -0.9483500719 -0.0398500040
H  0.6855200529 0.6282400489 -0.8379300237
H  0.6822201014 0.5255200267 0.9357400537
H  2.9515402317 -2.1928601265 -0.1033700109
H  6.4966206551 -0.8831800818 -0.1295600086
H  5.4206604958 1.1727701426 -0.3533900380
H  3.2102301121 1.8286001682 -0.8272801042
H  3.1317503452 1.8121401072 0.9671700597
