14

C  0.7724700570 0.1985200197 -0.0336900055
C  2.2556400299 0.0228900015 -0.1045900062
N  3.0529003143 0.9150900841 0.3864500523
N  4.3788905144 0.5383100510 0.2051400095
C  5.1761002541 1.4315601587 0.6947100163
C  6.6593208313 1.2558600903 0.6232100725
H  0.3428000212 -0.6435200572 0.5149300694
H  0.3676400185 0.1974600106 -1.0489400625
H  0.5111700296 1.1344301701 0.4654400349
H  2.6293900013 -0.8951400518 -0.5913300514
H  4.8025803566 2.3504800797 1.1800800562
H  6.9203705788 0.3180499971 0.1271400154
H  7.0651407242 1.2605201006 1.6380901337
H  7.0885801315 2.0958900452 0.0711700097
