18

C  3.9364602566 -0.9568100572 -1.0148100853
C  2.8841102123 -0.2347900271 -0.1818700135
O  2.7497801781 -0.9075701237 1.0662599802
C  3.1359202862 1.2130300999 0.1278800070
C  4.2453303337 1.9258100986 -0.1331600100
C  4.4093904495 3.3718802929 0.2040300071
N  5.4324002266 3.5094501972 1.2272801399
H  4.0682301521 -0.4839500487 -1.9930301905
H  3.6390502453 -1.9994001389 -1.1735600233
H  4.9040703773 -0.9882200360 -0.5013500452
H  1.9208801985 -0.3122000098 -0.6982300878
H  3.5866303444 -0.7753600478 1.5449202061
H  2.3038301468 1.7084201574 0.6266200542
H  5.0995702744 1.4624900818 -0.6207600236
H  3.4717001915 3.8173902035 0.5533500314
H  4.7159705162 3.9163603783 -0.6953300834
H  5.0955505371 3.0702202320 2.0833902359
H  5.5459604263 4.4968304634 1.4499001503
