15

C  1.0998101234 0.0544000044 0.1440900117
N  2.5113899708 0.0061300006 -0.2091100216
C  3.0235903263 -1.2573500872 -0.5027000308
O  2.4023902416 -2.3146703243 -0.4901300371
C  3.2637801170 1.1714900732 -0.2378300130
C  4.7265305519 1.0978300571 -0.6091200709
N  2.7828302383 2.3367702961 0.0382700041
H  0.5792900920 0.7094700336 -0.5620500445
H  1.0004000664 0.4715700150 1.1514501572
H  0.6217800379 -0.9280800819 0.1249200031
H  4.0902605057 -1.2556900978 -0.7643700838
H  4.8361806870 0.6941900253 -1.6196200848
H  5.2622504234 0.4660500288 0.1049700081
H  5.1754603386 2.0958001614 -0.5880500674
H  1.7939600945 2.3135099411 0.2799200118
