17

C  2.4477901459 -0.8240200877 1.2230900526
C  2.8480901718 -0.1889500022 -0.0995000079
C  3.0867202282 1.2857801914 0.0499000028
C  4.2662606239 1.8700700998 -0.2056400031
C  4.4250006676 3.3292901516 -0.0407000035
N  5.5547304153 3.9128301144 -0.2904900312
N  5.5169706345 5.2505202293 -0.0917900056
H  2.2727100849 -1.8964701891 1.0895600319
H  1.5271900892 -0.3782300353 1.6148802042
H  3.2339003086 -0.7003000379 1.9756400585
H  2.0493702888 -0.3433800042 -0.8339200616
H  3.7405602932 -0.6944800615 -0.4863800406
H  2.2367901802 1.8819202185 0.3754200339
H  5.1401906013 1.3204801083 -0.5349600315
H  3.5349903107 3.8862702847 0.3060600162
H  6.4699802399 5.6208405495 -0.1366200149
H  5.0234904289 5.7141704559 -0.8590500355
