14

N  3.5242602825 -1.0488899946 -0.5490599871
S  2.6548602581 0.1878300160 0.1835600138
O  1.5566700697 0.4640700519 -0.7119700909
O  2.4490301609 -0.2429400086 1.5463300943
C  3.7623403072 1.6152600050 0.2424800098
C  3.8604602814 2.3951702118 -1.0415201187
C  3.0789201260 2.9502000809 0.1198200136
H  3.6002602577 -1.8290500641 0.1067400128
H  3.0413401127 -1.3237401247 -1.4065999985
H  4.6349401474 1.5307900906 0.8724200726
H  3.3051102161 2.0624001026 -1.9117201567
H  4.8119702339 2.8564603329 -1.2803601027
H  3.5022602081 3.7852902412 0.6664100885
H  1.9980401993 2.9875102043 0.0341600031
