17

O  0.9806900620 -0.1601800025 0.0258600023
C  2.4108700752 -0.2283500284 -0.0313600004
C  2.9760801792 -0.6627000570 -1.3519201279
C  3.0687401295 0.7822900414 -0.9323500395
C  4.3948202133 1.3802500963 -0.5640500188
C  4.3162703514 2.3598802090 0.5729400516
C  4.9780206680 2.2225401402 1.7298301458
H  0.6920900941 0.5273200274 0.6506900787
H  2.9376301765 -0.5406700373 0.8648700714
H  2.2779102325 -0.9217900634 -2.1392803192
H  3.8697302341 -1.2745300531 -1.3363401890
H  2.4307100773 1.4932200909 -1.4456901550
H  4.7925200462 1.9052301645 -1.4413001537
H  5.1163601875 0.5869100094 -0.3303200305
H  3.6809003353 3.2305402756 0.4272300303
H  5.6272606850 1.3730900288 1.9187401533
H  4.8834505081 2.9654803276 2.5154302120
