18

N  2.7407503128 -0.8401900530 -1.1976600885
C  2.4620301723 -0.2328400165 0.1085100025
C  2.9885702133 1.2217100859 0.2363500148
C  2.5354402065 1.8207801580 1.5511101484
C  1.7656401396 2.9114801884 1.6593700647
C  4.5012702942 1.2776601315 0.1510600001
C  5.1803302765 1.9618701935 -0.7792900801
H  2.4996500015 -1.8292101622 -1.1667400599
H  3.7430403233 -0.7918700576 -1.3824201822
H  2.9033203125 -0.8643400669 0.8900600672
H  1.3761701584 -0.2457800210 0.2605000138
H  2.5581002235 1.8068801165 -0.5887100697
H  2.8654704094 1.3234601021 2.4615001678
H  1.4118201733 3.4486103058 0.7844900489
H  1.4765001535 3.2946202755 2.6335003376
H  5.0591101646 0.7228100300 0.9024500251
H  4.6703104973 2.5326101780 -1.5496702194
H  6.2656006813 1.9671701193 -0.7856600285
