19

C  1.5761702061 0.0430500023 1.3840001822
C  2.1564900875 0.3288699985 0.0083000008
C  3.2645502090 1.3366200924 0.0789500102
C  3.4464104176 2.3465201855 -1.0276700258
C  2.9494001865 2.7931602001 0.3250300288
C  3.8170702457 3.5962102413 1.2351300716
O  3.4901602268 4.9692301750 1.0910201073
H  0.8033700585 -0.7291401029 1.3197101355
H  1.1218000650 0.9431101084 1.8127701283
H  2.3516201973 -0.3013600111 2.0764901638
H  1.3550500870 0.6735600829 -0.6549300551
H  2.5497803688 -0.5996300578 -0.4199800193
H  4.1591801643 0.9214200377 0.5323700309
H  2.7404603958 2.3493702412 -1.8510801792
H  4.4608902931 2.5928101540 -1.3218700886
H  1.9053300619 3.0704500675 0.4229100347
H  4.8827104568 3.4668703079 1.0169700384
H  3.6432104111 3.3089101315 2.2765002251
H  3.5760803223 5.1793403625 0.1478700191
