14

C  1.3513600826 -0.3445800245 -0.0862000063
O  2.7279701233 0.0026800002 -0.1584100127
C  2.9265301228 1.4002300501 0.0263100006
C  4.3864107132 1.7346501350 -0.0405299999
C  5.3846302032 0.8566800952 -0.2295900136
C  6.7469501495 1.2564901114 -0.2813200355
N  7.8572406769 1.5886301994 -0.3225900233
H  1.2594701052 -1.4217801094 -0.2486700118
H  0.7827200890 0.1758300066 -0.8629701138
H  0.9477300644 -0.1044600084 0.9020800591
H  2.5344700813 1.7026702166 1.0037900209
H  2.3966100216 1.9529701471 -0.7576600313
H  4.6215600967 2.7911403179 0.0783800110
H  5.1812105179 -0.2023600191 -0.3507200181
