18

C  0.9152200818 -0.0920800120 -0.0046800002
C  2.4306101799 0.0426000021 -0.0007100001
C  2.9692702293 1.4862500429 -0.0110000009
C  2.5600802898 2.2463402748 -1.2734000683
C  2.5598001480 2.2718102932 1.2367200851
O  4.4012703896 1.4092800617 -0.0257500038
H  0.6366900206 -1.1511700153 0.0069000004
H  0.4731800258 0.3542500436 -0.9001000524
H  0.4668600559 0.3757500350 0.8765200973
H  2.8371901512 -0.4985500276 -0.8651300669
H  2.8284900188 -0.4844400287 0.8763400316
H  2.8585801125 1.6960401535 -2.1729700565
H  3.0680203438 3.2166802883 -1.3238700628
H  1.4815701246 2.4251799583 -1.3165000677
H  2.8517503738 1.7366901636 2.1471803188
H  1.4819900990 2.4554700851 1.2724901438
H  3.0725800991 3.2400002480 1.2703599930
H  4.6847505569 0.9512600899 0.7840300202
