15

C  3.0193803310 -0.5515600443 1.1600501537
C  2.6529402733 0.2445700318 -0.0844200104
C  2.8634102345 1.7264201641 0.0985100120
C  1.8360900879 2.5904502869 0.1852000207
C  4.2762899399 2.1909303665 0.0544400066
O  4.5151004791 3.2932701111 0.7920800447
O  5.1548604965 1.5996100903 -0.5518500209
H  2.8358802795 -1.6172100306 0.9909200668
H  2.4185800552 -0.2379500121 2.0204401016
H  4.0764603615 -0.4296100438 1.4179100990
H  1.6047202349 0.0374800004 -0.3349900246
H  3.2396104336 -0.1153300107 -0.9382700324
H  0.8087600470 2.2324202061 0.1733400226
H  1.9643701315 3.6680004597 0.2207400203
H  3.7643804550 3.5617702007 1.3519901037
