18

N  2.1390602589 -0.3974500299 -1.3872001171
C  2.3786802292 0.0481300019 -0.0170200020
C  3.1846504211 1.3374201059 -0.0152300010
C  2.4622302055 2.6264801025 -0.4867400229
C  3.2113802433 3.3778202534 0.6308300495
C  3.3316202164 2.0265202522 1.3728500605
O  4.5627202988 1.7858401537 2.0786402225
H  1.5863602161 -1.2544600964 -1.3676601648
H  3.0258703232 -0.6498200297 -1.8228201866
H  2.9181301594 -0.7345900536 0.5276100636
H  1.4141100645 0.1911000162 0.4824600518
H  4.1589503288 1.2015700340 -0.5084800720
H  1.3744400740 2.6151401997 -0.3500700295
H  2.6881201267 2.9509801865 -1.5058602095
H  4.1697502136 3.8051304817 0.3141600490
H  2.6311101913 4.1494703293 1.1436800957
H  2.4793300629 1.8439002037 2.0400302410
H  5.2714104652 2.0311203003 1.4596701860
