14

C  0.9778401256 0.0100500006 0.0354600027
C  2.4749002457 0.0363100022 -0.0202100016
C  3.1777002811 1.2415401936 -0.0532900058
C  4.5626902580 1.2017700672 -0.1132900044
N  5.2825307846 0.0600300059 -0.1455100030
C  4.5828404427 -1.0939201117 -0.1168600097
C  3.1989603043 -1.1573300362 -0.0567400046
H  0.5630500317 1.0178301334 0.1435100138
H  0.6410200596 -0.5817900300 0.8927000761
H  0.5743000507 -0.4257100224 -0.8839800954
H  2.6653001308 2.1976301670 -0.0324100032
H  5.1469707489 2.1171300411 -0.1389100105
H  5.1826605797 -1.9989801645 -0.1455800235
H  2.6998403072 -2.1202402115 -0.0383800045
