13

C  3.0410101414 -1.3592500687 0.0756200105
C  2.3635001183 -0.0151800010 0.0390700027
O  1.1372301579 0.0868900120 0.0238500014
C  3.1798002720 1.2271201611 0.0233100019
C  4.5180401802 1.2505400181 0.0000000000
C  5.2210402489 2.4681701660 0.0000000000
C  5.8161206245 3.4988803864 0.0000000000
H  3.6713101864 -1.4404201508 0.9649201035
H  3.6304705143 -1.5084701777 -0.8328100443
H  2.2808902264 -2.1451902390 0.1251600087
H  2.5961802006 2.1433701515 0.0341900028
H  5.1089806557 0.3410200179 -0.0133700008
H  6.3469605446 4.4227104187 -0.0001000000
