14

O  1.5825600624 2.0921001434 -1.1125401258
C  1.6827601194 1.6563900709 0.0326500013
C  2.7124502659 2.1306900978 1.0446001291
N  3.8740103245 2.6984903812 0.3499600291
C  4.7510504723 3.4052400589 1.2858000994
C  5.9560208321 3.9270601273 0.5316100121
O  6.3526306152 5.0861806870 0.6114600301
H  0.9489900470 0.9295900464 0.4211200178
H  3.0204102993 1.2672500610 1.6428000927
H  2.2166502476 2.8626401424 1.6911401749
H  3.5287401676 3.3469002247 -0.3667600155
H  5.1201500893 2.7262401581 2.0614399910
H  4.2352700233 4.2488903999 1.7552701235
H  6.5143408775 3.1774003506 -0.0559800044
