16

N  1.0417801142 0.0309200026 0.1444700062
C  2.4942502975 -0.0280300025 -0.0308300033
C  2.9090201855 -1.2545200586 -0.8754301071
C  3.3839001656 -0.6688300371 -2.1697201729
C  3.4337203503 0.6669800878 -2.1227102280
C  3.0007102489 1.1498600245 -0.8330500722
C  3.0813703537 2.4235503674 -0.4313200116
H  0.8070500493 0.8662900925 0.6755200624
H  0.7348700166 -0.7662301064 0.6961800456
H  2.9762802124 -0.0691700056 0.9527701139
H  2.0844802856 -1.9575800896 -1.0383800268
H  3.7263104916 -1.8007200956 -0.3891800046
H  3.6638202667 -1.2640100718 -3.0271902084
H  3.7610805035 1.3058800697 -2.9303202629
H  2.7547903061 2.7180600166 0.5603800416
H  3.4745802879 3.1999104023 -1.0799701214
