14

O  2.4977102280 1.6718701124 1.4858800173
C  2.1926903725 1.5255800486 0.3064400256
C  3.1739103794 1.3769100904 -0.8327100873
C  4.6102104187 1.3374700546 -0.4053700268
C  5.3441300392 0.0260700025 -0.2881900370
C  5.6788902283 0.9756500721 -1.4047701359
H  1.1306900978 1.5152800083 0.0055300002
H  3.0190701485 2.2289202213 -1.5031300783
H  2.9013001919 0.4676000476 -1.3799401522
H  4.8494400978 2.1204800606 0.3080100417
H  4.8255901337 -0.8919100761 -0.5401900411
H  6.0578007698 -0.0808400065 0.5217100382
H  6.6223006248 1.5083101988 -1.3509399891
H  5.3836002350 0.7007800341 -2.4108700752
