15

N  1.1325300932 0.1245700046 0.4831000268
N  2.3627402782 0.0793900043 -0.0792600065
C  2.9893801212 1.2182999849 -0.1438300014
C  4.3647904396 1.2867101431 -0.7657800317
C  4.6136507988 2.7557702065 -0.6696500778
C  3.6214003563 3.4265804291 -0.0750400051
C  2.4873702526 2.5558702946 0.3579600453
H  0.8125001192 -0.8319600821 0.6585900784
H  0.4496100247 0.5018400550 -0.1806500107
H  4.3372802734 0.9404700994 -1.8008201122
H  5.0825204849 0.7110100985 -0.1760700196
H  5.5165905952 3.2186501026 -1.0481300354
H  3.6247401237 4.4967703819 0.0858900025
H  2.3774499893 2.5466701984 1.4452800751
H  1.5537002087 2.8354201317 -0.1357300133
