18

C  1.0067501068 -0.4115100205 0.4783600569
C  2.2381801605 -0.4901100397 -0.4272900224
C  1.9981601238 -1.5209400654 -1.5324201584
C  2.5702800751 0.8754301071 -1.0479600430
C  3.1439101696 1.8703202009 -0.0563600026
N  3.3154504299 3.1248300076 -0.5676200390
O  3.4611904621 1.6150901318 1.0967800617
H  1.1671100855 0.2772800028 1.3133101463
H  0.7763100266 -1.3945400715 0.9031100869
H  0.1263300180 -0.0699200034 -0.0764900073
H  3.0878200531 -0.8332500458 0.1761500090
H  1.1566801071 -1.2306300402 -2.1711702347
H  1.7760901451 -2.5049102306 -1.1057901382
H  2.8847801685 -1.6259301901 -2.1668202877
H  1.6766101122 1.3118000031 -1.5097401142
H  3.3240101337 0.7484300733 -1.8344602585
H  3.1231601238 3.3611202240 -1.5302201509
H  3.7175402641 3.8269102573 0.0395400040
