12

C  0.9905900955 -0.2053000033 0.0047800005
C  2.4781901836 -0.0371900015 0.0047300006
C  3.1390202045 1.1379899979 0.0000000000
C  2.4360201359 2.3556201458 0.0000000000
C  1.8409402370 3.3863301277 0.0000000000
C  4.5450205803 1.1379899979 0.0000000000
N  5.6960306168 1.1379899979 0.0000000000
H  0.7393000722 -1.2708301544 -0.0321700014
H  0.5377600193 0.2690100074 -0.8716600537
H  0.5480300784 0.2065200210 0.9172200561
H  3.0482203960 -0.9660900831 0.0088200010
H  1.3112100363 4.3109602928 -0.0000000000
