16

C  1.2360500097 -1.1055800915 0.2813400328
C  2.2677900791 -0.3035400212 -0.5025000572
O  2.3907701969 -0.8675000668 -1.8133401871
C  1.8692802191 1.1658200026 -0.6112900376
C  3.0242602825 2.0285401344 -1.0700200796
N  3.5914301872 1.6644301414 -2.2541103363
O  3.3963701725 3.0282802582 -0.4664700329
H  1.1394300461 -0.7374600768 1.3078300953
H  1.5188801289 -2.1638703346 0.3144200444
H  0.2518100142 -1.0581201315 -0.2000200152
H  3.2448303699 -0.3997700214 -0.0164700001
H  1.4941200018 -1.0588401556 -2.1452002525
H  1.5497000217 1.5448701382 0.3671300411
H  1.0445300341 1.3048001528 -1.3196901083
H  3.4647302628 0.7141100168 -2.5954902172
H  4.4147801399 2.1708400249 -2.5502402782
