15

N  1.2351400852 -0.1341599971 0.0419400036
N  2.5749499798 0.0624800026 0.0608200021
C  2.9938502312 1.2982600927 0.0451800041
C  2.1144702435 2.5149600506 0.0973700061
C  2.4507300854 3.7309303284 -0.3559900224
C  4.4631505013 1.5768001080 0.0529500060
C  5.3342304230 0.7087400556 -0.4765800238
H  1.0444000959 -1.1304301023 0.1729100049
H  0.8590201139 0.0874700099 -0.8831900954
H  1.1243600845 2.3515100479 0.5114200115
H  3.4074401855 3.9443204403 -0.8186400533
H  1.7404301167 4.5493502617 -0.2916200459
H  4.8045902252 2.4957301617 0.5142000318
H  5.0048503876 -0.2208900154 -0.9319400787
H  6.3996605873 0.9092100859 -0.4576600492
