17

C  1.1509901285 -0.0914300084 0.6760300994
C  2.5200002193 0.0000000000 0.0000000000
C  2.5164701939 -0.5955200195 -1.4169201851
C  1.5522001982 0.0694500059 -2.3961300850
O  1.6610500813 -0.5601000190 -3.6685302258
C  3.0020201206 1.3611700535 0.0000000000
C  3.3993003368 2.4830701351 0.0000000000
H  1.2185400724 0.2153700143 1.7256702185
H  0.7725600600 -1.1181100607 0.6519600749
H  0.4118500352 0.5594200492 0.1976600140
H  3.2137904167 -0.6077300310 0.5962100029
H  2.2735702991 -1.6653500795 -1.3610401154
H  3.5310304165 -0.5546800494 -1.8374601603
H  1.7652702332 1.1347700357 -2.5238201618
H  0.5151700377 -0.0383900031 -2.0672900677
H  2.5600202084 -0.3916400373 -3.9995703697
H  3.7548701763 3.4879503250 0.0036500003
