20

C  0.7826200724 0.9157900214 0.1084500030
C  2.2501602173 0.8055800796 0.3695000410
C  3.1952402592 1.2868300676 -0.4520800412
C  4.6824102402 1.1680400372 -0.1952200234
C  5.3246102333 0.3263700306 -1.3022900820
C  5.3141703606 2.5732703209 -0.0959200114
N  6.7388801575 2.5318901539 0.2365300208
H  0.3405300081 -0.0833900049 0.0432099998
H  0.5669100881 1.4460301399 -0.8244900703
H  0.2978800237 1.4544700384 0.9273700714
H  2.5369400978 0.2942600250 1.2859901190
H  2.9009203911 1.7914701700 -1.3715701103
H  4.8446106911 0.6476200223 0.7589900494
H  5.2433805466 0.8187800646 -2.2775402069
H  4.8400301933 -0.6531600952 -1.3789900541
H  6.3860402107 0.1504400074 -1.1003501415
H  4.7961401939 3.1587002277 0.6733600497
H  5.1935901642 3.1101100445 -1.0444400311
H  6.8630003929 2.0759601593 1.1389800310
H  7.0836601257 3.4840703011 0.3480100334
