15

N  1.7880301476 -0.3168800175 1.0766601562
C  2.8351101875 0.0577100031 0.1230000108
C  2.8855602741 1.5265201330 -0.2103700042
C  1.9761301279 2.4555401802 0.1379600018
C  4.0722203255 1.9095001221 -1.0312601328
N  4.6206102371 3.1226701736 -0.7542300820
O  4.5764403343 1.1470501423 -1.8451900482
H  1.9132401943 -1.2986900806 1.3194100857
H  0.8874200583 -0.2663600147 0.6027400494
H  2.6921002865 -0.5227000117 -0.7959100604
H  3.7984802723 -0.2407200187 0.5528000593
H  1.1076000929 2.1935601234 0.7339400649
H  2.0520901680 3.4912903309 -0.1738300174
H  4.3290305138 3.6824402809 0.0331900008
H  5.4800100327 3.3621203899 -1.2280801535
