18

O  2.1285400391 -0.2621000111 -1.3979300261
C  2.2814002037 0.1068400070 -0.0298400018
C  3.0252301693 1.4402600527 0.0752700046
C  2.2347002029 2.6110601425 -0.4966200292
C  2.8061201572 3.8308303356 0.2140200138
C  3.6202802658 3.2768001556 1.3750001192
N  3.2573304176 1.8625401258 1.4628400803
H  1.6192400455 -1.0903801918 -1.4081600904
H  2.8459303379 -0.6856099963 0.4732300341
H  1.2873600721 0.1676599979 0.4269200265
H  3.9833202362 1.3641901016 -0.4568900466
H  1.1653599739 2.5216200352 -0.2669800222
H  2.3381202221 2.6895000935 -1.5837501287
H  3.4433603287 4.4140701294 -0.4594400525
H  1.9978201389 4.4825301170 0.5625500083
H  4.6920304298 3.3797702789 1.1674101353
H  3.4043502808 3.7996304035 2.3114402294
H  4.0174703598 1.3261600733 1.8782402277
