19

C  0.9989801049 0.0088700010 -0.0330900028
C  2.5188400745 0.0051000006 0.0386000015
C  3.0749003887 1.1195701361 0.9185000658
C  4.4980702400 0.6531700492 1.1808501482
C  4.3686203957 -0.8525200486 1.4003801346
C  3.0845201015 -1.2714300156 0.6756600142
O  3.3531601429 -2.2514903545 -0.3158600330
H  0.6394000649 -0.8184300661 -0.6531200409
H  0.6366900206 0.9444900751 -0.4709300101
H  0.5508600473 -0.0935900062 0.9605200887
H  2.9079301357 0.1172800139 -0.9825800657
H  2.5203702450 1.1965800524 1.8614301682
H  3.0468101501 2.0939002037 0.4222100377
H  5.1245603561 0.8467400670 0.3015600145
H  4.9526805878 1.1596800089 2.0372903347
H  5.2587504387 -1.3876701593 1.0552000999
H  4.2576904297 -1.0497601032 2.4730103016
H  2.3828604221 -1.7119201422 1.3925300837
H  4.0137701035 -1.8856201172 -0.9287800789
