13

C  0.9213901162 0.1061800122 -0.0428300016
C  2.4208502769 -0.0064800004 -0.0081500011
C  3.0975003242 -1.1663300991 0.0564600043
C  2.4609701633 -2.4986200333 0.0613500066
O  3.1308903694 -3.5209302902 0.1455800235
C  3.1820900440 1.2036701441 -0.0292300023
C  3.8192300797 2.2212402821 -0.0462400056
H  0.5936999917 1.1195701361 0.2156600058
H  0.4497100115 -0.5679500699 0.6792800426
H  0.5449200273 -0.1216800064 -1.0453001261
H  4.1829800606 -1.1918600798 0.0937000066
H  1.3641301394 -2.5307302475 -0.0221700016
H  4.3858604431 3.1231203079 -0.0614400059
