16

N  1.4252901077 -0.3837600350 -0.3535400331
C  2.7831201553 0.0040700003 0.0280700028
C  3.6979703903 -1.0586100817 0.5848800540
C  3.9738202095 -0.4626500607 -0.7580300570
O  4.9259405136 0.6278500557 -0.8268100619
C  4.2263002396 1.8377500772 -0.4911300242
C  3.0524001122 1.4335201979 0.4035200477
H  1.0425400734 0.2528600395 -1.0511001348
H  0.7990500927 -0.3427200317 0.4491700232
H  3.3431203365 -2.0817201138 0.6121300459
H  4.3656501770 -0.8056900501 1.3999401331
H  3.8185203075 -1.0730500221 -1.6391000748
H  4.9050402641 2.5349600315 0.0077300007
H  3.8720302582 2.2897400856 -1.4236701727
H  3.3378002644 1.4968901873 1.4603800774
H  2.1973600388 2.0996601582 0.2490900159
