12

C  3.0794203281 -1.2745701075 0.5376000404
O  2.4244000912 -0.0474200062 0.2620000243
C  3.1732802391 1.0563800335 0.1720000058
N  2.5798101425 2.2021400928 -0.0818900093
C  3.5101602077 3.2199501991 -0.1368400156
C  4.8168606758 2.8415002823 0.0769000053
S  4.8845405579 1.1551700830 0.3562500179
H  2.3186001778 -2.0597302914 0.5751100779
H  3.5773901939 -1.2490301132 1.5126001835
H  3.7856402397 -1.5355200768 -0.2576600015
H  3.1757802963 4.2304401398 -0.3385900259
H  5.7034006119 3.4574203491 0.0815300122
