17

C  0.9477400780 -0.0909300074 -0.1035500094
C  2.4721300602 -0.0118400017 0.0758000091
C  2.8700501919 -0.7861101031 1.3430501223
N  3.1207404137 -0.6627800465 -1.0672000647
C  2.8972702026 1.4406601191 0.0704500079
C  3.4949502945 2.1290702820 1.0543401241
H  0.6180900335 0.4133400321 -1.0207400322
H  0.4263000488 0.3836700022 0.7369800806
H  0.6042799950 -1.1311401129 -0.1588700116
H  2.3983602524 -0.3597800434 2.2368299961
H  3.9557304382 -0.7787200212 1.4999201298
H  2.5562503338 -1.8358101845 1.2847200632
H  2.7533302307 -0.2776200175 -1.9348301888
H  2.8799302578 -1.6520100832 -1.0783201456
H  2.6875202656 1.9859400988 -0.8501200676
H  3.7538602352 1.6814302206 2.0072200298
H  3.7524104118 3.1746404171 0.9149000645
