16

N  0.9114700556 -0.0619900040 0.2208700180
C  2.3701500893 -0.0054800003 0.0797800049
C  2.8006103039 1.3245301247 -0.6053600907
C  3.8935101032 1.1961901188 -1.6314300299
C  4.3212504387 0.0112000015 -2.0857501030
C  3.7523002625 -1.2249001265 -1.6098601818
C  2.8516204357 -1.2482399940 -0.6165600419
H  0.5851200819 0.7803100348 0.6908100843
H  0.6627800465 -0.8421200514 0.8252400756
H  2.7958502769 -0.0142000010 1.0921200514
H  3.1279702187 2.0231301785 0.1732600182
H  1.9444701672 1.8005801439 -1.0976700783
H  4.3211703300 2.1125502586 -2.0275702477
H  5.0956201553 -0.0484300032 -2.8432703018
H  4.0818400383 -2.1449801922 -2.0767202377
H  2.4692900181 -2.2041399479 -0.2739000320
