15

C  0.9788801074 0.0416000038 0.0670900047
C  2.4530000687 -0.0302300025 -0.0194400009
C  3.2775502205 -1.0810301304 -0.0558000058
C  4.7284803391 -0.7308200598 -0.1373900175
C  4.7602801323 0.7896300554 -0.2492000163
C  3.3160603046 1.1640601158 -0.0971300080
O  2.8882303238 2.3071503639 -0.0586700067
H  0.5301400423 -0.9571900368 0.0421100035
H  0.5713600516 0.6126500368 -0.7728000283
H  0.6718100905 0.5271500349 0.9979100823
H  2.9384703636 -2.1089501381 -0.0171700008
H  5.2547106743 -1.0701200962 0.7608000636
H  5.2002902031 -1.1998200417 -1.0067800283
H  5.1228103638 1.1102501154 -1.2297500372
H  5.3609204292 1.2397300005 0.5459400415
