15

C  1.0544201136 -0.0692900047 0.1407000124
C  2.5609700680 0.0080000004 0.0292500034
N  3.0787103176 1.1930301189 0.0560700037
C  4.5423502922 1.2424000502 -0.1018700078
C  5.2113704681 -0.0971100032 0.1731300205
O  4.5363502502 -1.0965800285 -0.5977600217
N  3.2415902615 -1.1928200722 -0.0701600090
H  0.7116900682 -1.1070100069 0.1654300094
H  0.6042100787 0.4348700345 -0.7194100618
H  0.7316500545 0.4339800179 1.0567700863
H  4.7538404465 1.5585600138 -1.1299501657
H  4.9511799812 2.0040900707 0.5699600577
H  6.2598404884 -0.0717300028 -0.1394300014
H  5.1823801994 -0.3614900112 1.2375601530
H  2.7207701206 -1.9862501621 -0.4341500401
