16

C  3.3526203632 -1.1291501522 -0.5151100159
C  2.5269200802 0.0012500001 0.0772800073
C  3.2233302593 1.3552300930 -0.0109900013
C  3.4453604221 1.8466001749 -1.4220000505
C  3.2128801346 3.2865402699 -1.1827200651
N  2.6215801239 3.5803101063 -0.0767300054
O  2.3860101700 2.3545601368 0.5943600535
H  2.8317003250 -2.0832500458 -0.3875000179
H  4.3248500824 -1.2046301365 -0.0187300015
H  3.5222303867 -0.9804200530 -1.5855201483
H  2.3083500862 -0.2210400105 1.1296801567
H  1.5498301983 0.0474300049 -0.4208600223
H  4.1667699814 1.3351601362 0.5482500196
H  2.7053501606 1.4891802073 -2.1437401772
H  4.4532804489 1.6520900726 -1.7935900688
H  3.4927802086 4.0357704163 -1.9358401299
