11

C  1.0931501389 -0.2087600231 -0.3902700245
C  2.3958702087 0.0076100002 -0.1544200033
C  3.0303001404 1.2952600718 -0.1074400097
N  2.3834002018 2.4535801411 -0.2972200215
S  3.5415503979 3.6496601105 -0.1451700032
N  4.8939204216 2.7132802010 0.1663100123
C  4.4367604256 1.4595201015 0.1511700153
H  0.6893301010 -1.2148900032 -0.4094700515
H  0.4034800529 0.6119000316 -0.5688199997
H  3.0271501541 -0.8615400791 0.0157900024
H  5.1502404213 0.6673100591 0.3326200247
