14

C  1.0272099972 -0.0355400033 0.1071500108
C  2.5378601551 0.0228500012 -0.0070200004
C  3.1568801403 1.1764400005 0.7539600134
N  4.3746404648 0.6023200154 1.2100900412
C  4.2587699890 -0.7606700063 1.2460201979
O  5.0349507332 -1.5146801472 1.8035801649
O  3.1194603443 -1.1457500458 0.5972900391
H  0.6406300664 -0.9131900668 -0.4217100441
H  0.5636800528 0.8605900407 -0.3156800270
H  0.7129700780 -0.1373600066 1.1515400410
H  2.8382902145 0.0342700034 -1.0615700483
H  2.5723502636 1.4656701088 1.6335902214
H  3.3466503620 2.0559902191 0.1344400048
H  5.0527906418 1.0456700325 1.8154400587
