12

O  1.4130901098 -0.1244100109 0.4246200323
C  2.6200101376 0.0869100094 0.4133700132
N  3.2033102512 1.3239899874 0.3828700185
C  2.5126001835 2.6026701927 0.1884000152
C  3.7454502583 3.0743603706 -0.6010000110
C  4.2336201668 1.6254000664 -0.4549200237
O  5.1845903397 0.9790200591 -0.8262800574
H  3.3595402241 -0.7306800485 0.3581600487
H  2.3291702271 3.1329302788 1.1266101599
H  1.5901201963 2.5238502026 -0.3941200376
H  3.5514900684 3.3805902004 -1.6310801506
H  4.3817901611 3.8044102192 -0.0946100056
