17

C  -1.7767001390 0.6448800564 0.3342000246
O  -1.6637001038 -0.7697200775 -0.1445500106
C  -0.2972900271 -0.6838400364 0.3372300267
C  0.8841701150 -1.1822501421 -0.4431300461
C  1.9234701395 -0.0967000052 -0.0752300024
C  1.0944601297 1.0842000246 0.4992000163
C  -0.2854800224 0.8110700846 -0.0602200069
H  -2.4894902706 1.2099601030 -0.2710000277
H  -2.0348401070 0.7010600567 1.3967900276
H  -0.2459300160 -0.9271200299 1.4100601673
H  1.2102401257 -2.1793301105 -0.1350400150
H  0.6995300651 -1.1917001009 -1.5232801437
H  2.6398100853 -0.4559700489 0.6710900664
H  2.4861302376 0.2039000094 -0.9655901194
H  1.1033500433 1.0717501640 1.5957601070
H  1.4957101345 2.0467400551 0.1679400206
H  -0.2476800233 1.0189901590 -1.1440901756
