19

C  -1.7236500978 0.8429200649 0.5566400290
C  -1.1540000439 -0.2570300102 -0.2981100380
C  -0.3515800238 -1.3817001581 0.2846800387
C  1.0685200691 -1.3376501799 -0.2798600197
C  1.7704801559 0.0206800010 -0.0952900127
C  0.8631000519 1.1609899998 0.3770000339
C  -0.4876000285 1.0941901207 -0.2697000206
H  -2.6494400501 1.3056100607 0.2337500304
H  -1.6277202368 0.7674900293 1.6347301006
H  -1.6764800549 -0.5386800766 -1.2039000988
H  -0.3183400333 -1.3155701160 1.3791800737
H  -0.8223200440 -2.3396701813 0.0371900015
H  1.6752301455 -2.1324303150 0.1689000130
H  1.0247300863 -1.5560201406 -1.3550101519
H  2.5974700451 -0.0892700106 0.6168600917
H  2.2337701321 0.2996500432 -1.0502500534
H  0.7619400620 1.1076900959 1.4684501886
H  1.3356300592 2.1254301071 0.1590100080
H  -0.5641100407 1.7081000805 -1.1591401100
