18

C  2.6203401089 -0.6699300408 0.0598100051
O  2.2218003273 0.6948400736 0.0594300032
C  3.2037401199 1.6732001305 0.0515500046
C  2.5984702110 3.0614702702 0.0437400043
N  2.2539803982 3.4885301590 1.3968400955
C  4.5313601494 1.4326901436 0.0324000046
C  5.6336002350 2.4454102516 0.0629200041
H  1.7147601843 -1.2846001387 0.0666400045
H  3.1959903240 -0.9106900692 0.9596800804
H  3.1835703850 -0.9146300554 -0.8464800715
H  1.6908100843 3.0507402420 -0.5719700456
H  3.2608001232 3.7995502949 -0.4183300436
H  1.6610500813 2.7656803131 1.8060101271
H  1.6775201559 4.3250904083 1.3390901089
H  4.8995904922 0.4116200209 0.0261300020
H  5.2866601944 3.4764204025 0.1480600089
H  6.2359108925 2.3620600700 -0.8471800685
H  6.2852902412 2.2478103638 0.9201501012
