16

C  3.1365301609 -0.3980800211 1.3798700571
C  2.9140102863 0.1708000153 -0.0140900007
C  2.9164800644 1.6768001318 -0.0106500005
C  1.7871100903 2.4049103260 -0.0500400029
C  4.2531399727 2.3368401527 -0.0644000024
N  4.3641004562 3.5011203289 0.6291300654
O  5.2147207260 1.8347901106 -0.6297400594
H  3.1370503902 -1.4919301271 1.3443201780
H  2.3411700726 -0.0844200104 2.0639801025
H  4.0945105553 -0.0726500005 1.7972002029
H  1.9585602283 -0.2056300044 -0.4018200338
H  3.6829502583 -0.2121800184 -0.6959600449
H  0.8138900399 1.9229801893 -0.0454200022
H  1.7937401533 3.4879803658 -0.1154000089
H  3.6348302364 3.8505401611 1.2324101925
H  5.2794203758 3.9277701378 0.6722800732
