17

C  0.9710900187 0.0579600036 -0.0454800017
C  2.4860303402 0.0052900007 0.0821100101
O  2.8472301960 -1.2144501209 0.7635101080
C  3.3774602413 -0.8808200955 2.0557401180
C  3.5685803890 0.5888200402 2.0401201248
C  3.0555202961 1.0995501280 0.9223000407
C  3.0456202030 2.5248801708 0.5065600276
H  0.6124100685 -0.8015100360 -0.6234000325
H  0.6384400725 0.9744101167 -0.5434700251
H  0.4861900508 -0.0032300004 0.9353100657
H  2.9532203674 -0.0149400020 -0.9076400399
H  4.3213105202 -1.4160101414 2.1984100342
H  2.6631700993 -1.1876401901 2.8247001171
H  4.0432500839 1.1459701061 2.8327302933
H  2.7846801281 2.6236901283 -0.5534000397
H  4.0326399803 2.9782102108 0.6458400488
H  2.3126702309 3.0901002884 1.0883400440
