12

C  1.4578400850 -0.5342900753 -0.2128400207
C  2.7468001842 -0.2404300272 -0.0098000010
C  3.2695503235 1.1028801203 -0.0985800102
C  4.5623703003 1.3857301474 0.1014100090
C  5.0412206650 2.7771203518 -0.0026800002
O  6.2202706337 3.0597300529 0.1735300124
H  1.1089100838 -1.5598701239 -0.1357200146
H  0.7194600105 0.2224400043 -0.4588400424
H  3.4389102459 -1.0450301170 0.2336200029
H  2.5607802868 1.8934900761 -0.3390700221
H  5.3109502792 0.6397700310 0.3424600065
H  4.2846798897 3.5407602787 -0.2460100204
