9

N  0.9588900805 -0.0498200022 -0.1165200025
C  2.1192100048 -0.0146800010 -0.0836600065
C  3.5550601482 -0.0002900000 -0.0106300004
C  4.3404703140 -0.7703200579 -1.0436199903
N  4.3476901054 0.6858000159 -1.0415501595
H  3.9635102749 0.0448100045 0.9931500554
H  3.8129601479 -1.2378700972 -1.8672401905
H  5.2543907166 -1.2646100521 -0.7388600707
H  5.2137002945 1.0524300337 -0.6433500648
