18

C  1.1371800900 0.0543700047 0.1427400112
N  2.5858502388 -0.0341900028 -0.0756300092
C  2.8413503170 -0.7628400922 -1.3238201141
C  3.1437602043 1.3322501183 -0.1888500154
C  3.2215101719 2.0177803040 1.1890100241
O  4.6254701614 2.3351001740 0.9740700722
C  4.6796803474 1.3185300827 -0.0660100058
H  0.9127500653 0.5609600544 1.0871701241
H  0.7008400559 -0.9477800727 0.2179200202
H  0.6274800897 0.5930400491 -0.6643100381
H  2.4257202148 -1.7749801874 -1.2665901184
H  3.9162201881 -0.8793801069 -1.4975200891
H  2.4062700272 -0.2599000335 -2.1951401234
H  2.7514801025 1.9619501829 -0.9954200983
H  3.1006302834 1.3908700943 2.0788202286
H  2.6142702103 2.9215602875 1.2890200615
H  5.2158904076 1.6740101576 -0.9501100779
H  5.1536102295 0.4064200222 0.3118800223
