19

C  3.0699901581 -1.1169501543 0.3287100196
C  2.1585602760 0.0169300027 0.7794400454
C  2.6350800991 1.4150100946 0.3375300169
C  1.5596101284 2.4521203041 0.6799100637
N  3.9059703350 1.7730501890 0.9930900335
N  4.4797401428 2.9324002266 0.5856100321
C  5.5282402039 3.2497503757 1.2685301304
H  2.6148002148 -2.0821101665 0.5747800469
H  4.0440101624 -1.0786501169 0.8256900907
H  3.2305200100 -1.0859800577 -0.7538000345
H  2.0511600971 -0.0206000023 1.8704900742
H  1.1609801054 -0.1671700031 0.3612200320
H  2.7832303047 1.4069100618 -0.7493800521
H  1.3834000826 2.5044901371 1.7596701384
H  0.6106100678 2.1963102818 0.1962600201
H  1.8419600725 3.4514901638 0.3325700462
H  4.5602402687 0.9949200749 0.8953601122
H  6.0763006210 4.1740603447 1.0248100758
H  5.9203305244 2.6463601589 2.1061801910
