16

O  0.7832900882 0.1008200124 -0.0664600059
C  2.1779000759 0.0178700015 0.2769500315
C  3.0423402786 -0.8739600778 -0.5768600702
C  2.5634300709 -1.4325301647 -1.8818901777
C  2.7257401943 -0.2739000320 -2.8787503242
N  2.6408202648 0.9709200859 -2.0904002190
C  3.1170501709 0.6164100170 -0.7341000438
H  0.7004400492 0.5684800744 -0.9210200310
H  2.4397501945 0.1072900072 1.3255101442
H  3.8762502670 -1.3971201181 -0.1345200241
H  3.1583602428 -2.2980303764 -2.1904203892
H  1.5157301426 -1.7439401150 -1.8092501163
H  3.7167003155 -0.3334200084 -3.3448302746
H  1.9718202353 -0.3044400215 -3.6701903343
H  3.2287502289 1.6845201254 -2.5212001801
H  3.9988303185 1.1317200661 -0.3681400418
