10

N  0.8453000784 0.0791500062 -0.1017100066
C  2.0043201447 0.0397300050 -0.0699700043
C  3.5360701084 -0.0202900022 -0.0228300020
C  4.7353801727 -0.0675500110 0.0138000008
C  6.1629099846 -0.1184400097 0.0583000034
C  6.9216904640 -0.7994500995 -1.0488400459
O  6.7822003365 0.6252800226 -1.0001600981
H  6.6307306290 -0.0686500072 1.0347300768
H  6.3748807907 -1.3300000429 -1.8184300661
H  7.8964505196 -1.2134401798 -0.8228700757
