19

C  0.9698700905 0.0043400000 -0.0465600044
C  2.4935002327 -0.0084200008 -0.0175500028
C  3.0598702431 -1.2662301064 0.6565900445
C  3.3835604191 -0.8688800931 2.0979802608
C  3.5238902569 0.6182500124 2.0051002502
C  4.1079602242 1.4071301222 3.1207802296
C  3.0382301807 1.0875300169 0.8480800986
H  0.5911600590 -0.8197600245 -0.6602800488
H  0.5957300067 0.9413400292 -0.4730600417
H  0.5422000885 -0.1015700102 0.9569500685
H  2.8820102215 0.0769200027 -1.0384501219
H  3.9881005287 -1.5624802113 0.1488900036
H  2.3830301762 -2.1260001659 0.6101700664
H  4.3035402298 -1.3535501957 2.4380803108
H  2.5668003559 -1.1330201626 2.7777502537
H  4.1309103966 2.4770300388 2.8885300159
H  5.1344604492 1.0837000608 3.3195602894
H  3.5178902149 1.2720601559 4.0325503349
H  3.0099103451 2.1321101189 0.5681000352
