18

N  0.9296901226 0.1314000040 0.2766700387
C  2.3557901382 0.0529000051 -0.0129300011
C  3.1066200733 1.0366200209 0.9205901027
C  4.1080002785 -0.1022600085 1.2094300985
C  3.0028800964 -1.0986300707 0.7925300598
C  2.6293201447 0.1632200181 -1.4603301287
C  2.3996903896 -0.8536000848 -2.3021800518
H  0.6842600703 -0.0091700014 1.2541900873
H  0.3733099997 -0.5358900428 -0.2549400330
H  2.5598301888 1.3576400280 1.8168101311
H  3.5438702106 1.9257200956 0.4554200172
H  4.9783306122 -0.1049900055 0.5432600379
H  4.4523401260 -0.1812200099 2.2437100410
H  3.3622503281 -1.9660501480 0.2301300168
H  2.4215402603 -1.4688301086 1.6466701031
H  3.0105602741 1.1064300537 -1.8422800303
H  2.0089101791 -1.8069001436 -1.9632201195
H  2.5987401009 -0.7438300848 -3.3642404079
