17

N  1.0520200729 -0.0261300020 -0.5628600121
C  2.4940702915 -0.1002900004 -0.2740600109
C  3.0655303001 1.2693001032 0.1843600273
N  2.2065300941 1.8525800705 1.2285200357
C  4.4997501373 1.1341201067 0.6097500920
C  5.1058502197 1.8787600994 1.7743500471
O  4.7107105255 0.5018300414 1.8824900389
H  0.7323800921 -0.9395800829 -0.8828400373
H  0.8999000192 0.6171300411 -1.3404401541
H  3.0282201767 -0.4482500255 -1.1652400494
H  2.6463203430 -0.8517200947 0.5100800395
H  3.0342400074 1.9557901621 -0.6708600521
H  2.3217201233 1.2748700380 2.0642101765
H  1.2432900667 1.6499900818 0.9364100695
H  5.1526703835 0.8507500291 -0.2075200230
H  4.5127105713 2.6177601814 2.2992501259
H  6.1669802666 2.0929701328 1.7508801222
