12

N  0.8937600851 0.0228400007 0.2736000121
C  2.1788201332 -0.0028800003 0.2876800299
N  2.9438302517 1.1087700129 0.1520100236
C  4.3092303276 1.2225301266 0.1422800124
C  5.0225801468 2.3474001884 0.0000000000
C  6.4285802841 2.3474001884 0.0000000000
N  7.5795903206 2.3474001884 0.0000000000
H  0.5314600468 -0.9303500652 0.3920900226
H  2.7437701225 -0.9430701137 0.4121000469
H  2.4039802551 1.9615300894 0.0382400043
H  4.8166403770 0.2654700279 0.2659000158
H  4.5291800499 3.3040902615 -0.1239900067
