19

C  -1.4826800823 0.7462900281 0.1301200092
C  -1.4723300934 -0.7576200366 -0.1358900070
N  -0.3138900101 -1.4700800180 0.3990600109
C  0.8882100582 -1.2473001480 -0.4110900462
C  1.6875001192 0.0318100043 -0.0784700066
N  0.9435101151 1.1962400675 0.4110900462
C  -0.2502500117 1.4947700500 -0.3758500516
H  -2.3707602024 1.1727100611 -0.3529400229
H  -1.6096900702 0.9265800714 1.2062801123
H  -1.5837100744 -0.9524500966 -1.2103600502
H  -2.3665001392 -1.1861701012 0.3325900435
H  -0.1368000060 -1.1758500338 1.3578300476
H  1.5547401905 -2.1055600643 -0.2615500093
H  0.6352500319 -1.2558001280 -1.4783701897
H  2.4273703098 -0.2159900069 0.6929100156
H  2.2675502300 0.3256000280 -0.9629000425
H  0.6802900434 1.0430001020 1.3834400177
H  -0.4459600449 2.5678400993 -0.2670500278
H  -0.0880100057 1.3233101368 -1.4468101263
