17

C  2.3011600971 -0.4795000553 -1.5683501959
C  2.4477300644 0.0615500063 -0.1524400115
C  3.3903403282 1.2646701336 -0.0719700009
C  3.5820803642 1.7483601570 1.3748301268
O  3.5594801903 3.1924102306 1.3804100752
C  3.0285100937 3.5129401684 0.1514000148
C  2.8872003555 2.5112299919 -0.7082101107
H  1.6659700871 -1.3713700771 -1.5657200813
H  3.2742903233 -0.7589100599 -1.9843502045
H  1.8395900726 0.2566000223 -2.2332501411
H  2.8338000774 -0.7404400706 0.4884500504
H  1.4544501305 0.3246000409 0.2311700135
H  4.3620200157 1.0049600601 -0.5086800456
H  4.5409603119 1.4107800722 1.7835800648
H  2.7860503197 1.3986201286 2.0439901352
H  2.8194203377 4.5594205856 0.0052100001
H  2.5281903744 2.6058001518 -1.7213501930
