10

O  2.5669603348 -1.1064200401 0.1096400097
C  2.1053402424 0.0276000015 0.0109800007
C  2.9197902679 1.2262700796 -0.0111300005
N  2.3566801548 2.4395101070 -0.1210500076
O  3.4063603878 3.3428103924 -0.1102000102
C  4.5782203674 2.6713202000 0.0049100006
C  4.3297505379 1.3269400597 0.0716600046
H  1.0175601244 0.1927300096 -0.0677800104
H  5.4691305161 3.2822902203 0.0236600004
H  5.0473604202 0.5257300735 0.1660700142
