11

O  1.0018401146 0.0261900015 0.2292700261
C  2.2198100090 0.0188900027 0.0871600062
O  2.9620802402 1.1696400642 0.0236500017
C  4.3536801338 1.0923700333 -0.1411000192
C  5.0176901817 -0.0609300025 -0.2421700209
C  4.2765502930 -1.2879201174 -0.1793400198
C  2.9483003616 -1.2620501518 -0.0232100021
H  4.7927799225 2.0793502331 -0.1730800271
H  6.0943002701 -0.0904000103 -0.3693500161
H  4.8144302368 -2.2269701958 -0.2606300116
H  2.3498902321 -2.1621301174 0.0293200035
