18

C  2.9103102684 -0.9279500842 -0.5739000440
O  3.1828403473 0.3982900381 -1.0073701143
C  3.8799602985 1.1441100836 -0.0032800003
C  4.1121501923 2.5683600903 -0.5143800378
N  4.8014602661 3.3744001389 0.5023400187
C  6.2134304047 3.6101102829 0.2130100131
C  5.1870603561 4.6935706139 0.0087400004
H  2.3619301319 -1.4432001114 -1.3669701815
H  2.2914202213 -0.9181501269 0.3284700215
H  3.8433501720 -1.4677600861 -0.3860300481
H  4.8379702568 0.6545300484 0.2085400224
H  3.2794303894 1.1656801701 0.9139700532
H  3.1374902725 3.0224702358 -0.7370900512
H  4.6438603401 2.5250799656 -1.4758001566
H  6.6576409340 3.1473500729 -0.6581300497
H  6.8643202782 3.6868703365 1.0752800703
H  5.1411900520 5.4972605705 0.7344400287
H  4.9152703285 4.9685201645 -1.0029901266
