17

C  -1.6495401859 0.6044200659 0.2870100439
N  -1.6230701208 -0.8240001202 -0.3319000304
C  -0.2189500183 -0.8005300760 0.1474500149
C  1.0649300814 -1.0806300640 -0.5708300471
C  1.9220302105 0.0863600001 0.0079000005
N  0.9536501169 1.1431400776 0.4503500164
C  -0.2348500192 0.7087100744 -0.2686600089
H  -2.3945300579 1.2617801428 -0.1699700207
H  -1.7691200972 0.6195500493 1.3775401115
H  -1.7163602114 -0.8263300657 -1.3491101265
H  -0.1481800079 -1.0443600416 1.2206901312
H  1.4910300970 -2.0538902283 -0.3105100393
H  0.9783601165 -1.0131200552 -1.6622800827
H  2.5091001987 -0.2489200085 0.8697800636
H  2.6082901955 0.4780000150 -0.7505700588
H  0.8620900512 1.0964400768 1.4663101435
H  -0.2173300236 0.9540600777 -1.3438301086
