19

C  1.0355499983 0.0304300021 -0.0606400035
C  2.5545501709 0.0184000023 0.0418400019
N  3.0543603897 1.0832000971 0.9265600443
C  4.4333705902 0.6768800616 1.2200100422
C  4.4062299728 -0.8403800726 1.3459900618
C  3.1069202423 -1.2778900862 0.6691700816
N  3.3134403229 -2.3739302158 -0.2758700252
H  0.6828700900 -0.7761100531 -0.7117000818
H  0.6823300123 0.9793400764 -0.4783300459
H  0.5642900467 -0.0994600058 0.9200301170
H  2.9766402245 0.1719000041 -0.9599300623
H  2.5202002525 1.0703600645 1.7966701984
H  5.0834803581 0.9764900804 0.3900800049
H  4.8102803230 1.1592800617 2.1269500256
H  5.3021602631 -1.2811400890 0.8936500549
H  4.3901205063 -1.1421999931 2.4000999928
H  2.4208402634 -1.6365201473 1.4479200840
H  3.9751303196 -2.0830900669 -0.9970600605
H  2.4412102699 -2.5722403526 -0.7668500543
