20

C  3.2244303226 0.3800000548 -2.9546401501
C  4.0085401535 0.3970000148 -1.6566702127
O  4.7562904358 1.6094700098 -1.6011401415
C  5.3856606483 1.8389000893 -0.3282800317
C  6.5741500854 0.9011300802 -0.1320500076
C  5.8667607307 3.3056201935 -0.3064400256
N  4.7377705574 4.2374205589 -0.4143900275
H  2.6538000107 -0.5474900603 -3.0532503128
H  3.8963003159 0.4758100510 -3.8138802052
H  2.5314400196 1.2265901566 -2.9958302975
H  4.6870102882 -0.4613400400 -1.6327501535
H  3.3184502125 0.3369400501 -0.8078600168
H  4.6548004150 1.6900000572 0.4770100415
H  7.2491002083 0.9399600625 -0.9935200810
H  6.2437701225 -0.1371500045 -0.0332900025
H  7.1374306679 1.1573700905 0.7703400850
H  6.5382905006 3.4848103523 -1.1544401646
H  6.4142403603 3.5193002224 0.6173400879
H  4.1726403236 3.9320702553 -1.2112201452
H  5.0907702446 5.1618304253 -0.6562100649
