18

C  0.8707500696 1.1504901648 -1.2520201206
C  2.3570501804 0.9887200594 -1.2425001860
C  3.1388902664 1.3345201015 -0.2066600174
C  4.6438302994 1.2028900385 -0.1054700017
C  5.3199901581 0.4693200588 -1.2666101456
C  5.2691702843 2.5889401436 0.0680400059
H  0.5733300447 1.8066701889 -2.0756802559
H  0.4935200512 1.5813001394 -0.3192300498
H  0.3916300237 0.1773900092 -1.3967300653
H  2.7881200314 0.5661700368 -2.1459701061
H  2.6620001793 1.7532801628 0.6798700690
H  4.8490605354 0.6255100369 0.8055200577
H  5.1967506409 1.0080300570 -2.2127702236
H  4.9105105400 -0.5394600630 -1.3884201050
H  6.3951005936 0.3662100434 -1.0818001032
H  5.0980806351 3.2177500725 -0.8132800460
H  6.3510708809 2.5107700825 0.2217600048
H  4.8488306999 3.1068303585 0.9376700521
