16

C  1.5178000927 -0.4272800386 0.8669900298
C  3.0094101429 -0.1833700091 0.7208900452
N  3.3194401264 0.8424600959 -0.2680900097
O  2.9337201118 2.1398000717 0.1752700210
C  1.9448001385 2.6488001347 -0.7190100551
C  4.5880603790 0.8652501106 -0.8257000446
O  5.3595499992 -0.0843000114 -0.9132700562
H  1.3344900608 -1.2398900986 1.5761702061
H  1.0727400780 -0.7025600672 -0.0940600038
H  1.0024400949 0.4644000232 1.2353600264
H  3.4963502884 -1.1192400455 0.4229700267
H  3.4462301731 0.1218800098 1.6799101830
H  1.7075700760 3.6723701954 -0.4171900153
H  1.0319900513 2.0484101772 -0.6660500765
H  2.3243601322 2.6677601337 -1.7459502220
H  4.8284206390 1.8460901976 -1.2688200474
