16

O  1.8957101107 -0.0460299999 -1.3109101057
C  2.1970102787 0.1878000051 0.0637600049
C  3.4158501625 1.1102401018 0.1624100208
N  3.2530002594 2.4023902416 -0.5647000074
C  2.8004202843 3.0398802757 0.6897500157
C  3.5542104244 1.9338301420 1.4722101688
O  4.9039101601 2.2560303211 1.8856700659
H  1.1956400871 -0.7201800346 -1.3391901255
H  2.4087102413 -0.7710800767 0.5475000143
H  1.3097101450 0.6253300905 0.5321900249
H  4.3291602135 0.5783800483 -0.1324100047
H  2.5589201450 2.3460099697 -1.3138501644
H  3.1691403389 4.0590000153 0.8351001143
H  1.7136301994 3.0347602367 0.8318200707
H  2.9977002144 1.5354901552 2.3271501064
H  5.3095703125 2.6111900806 1.0716401339
