17

C  0.7131300569 0.5430700183 -1.4581000805
C  1.0506000519 -0.0417900011 -0.0960200056
N  2.5010302067 -0.2052600086 0.0307200029
N  2.8287100792 -0.7387700677 1.2949900627
C  3.5544002056 0.0354500040 2.1894800663
C  3.9378302097 -0.7116800547 3.4368002415
O  3.8426702023 1.2135201693 1.9967501163
H  -0.3718300164 0.6393000484 -1.5681800842
H  1.0774600506 -0.0999100059 -2.2665700912
H  1.1548199654 1.5372201204 -1.5841300488
H  0.5549100637 -1.0139900446 0.0082300007
H  0.6672000289 0.6199500561 0.6896000504
H  2.9416501522 0.7246200442 -0.0293700024
H  2.7612202168 -1.7445001602 1.4275101423
H  3.0366704464 -1.0053400993 3.9818503857
H  4.5466303825 -0.0675900057 4.0771703720
H  4.5202302933 -1.5995401144 3.1757302284
