13

C  2.7311601639 -1.2285401821 0.4113200307
C  2.2447202206 -0.0054200008 0.1658000052
C  3.0248000622 1.1908401251 0.1161100045
C  2.5508003235 2.4751601219 -0.1126300097
C  3.5702402592 3.4693903923 -0.1054900065
C  4.8101100922 2.9262402058 0.1282600015
S  4.7368707657 1.2336901426 0.3362500370
H  2.0629401207 -2.0841300488 0.4310700297
H  3.7798004150 -1.4306801558 0.5984200835
H  1.1759300232 0.0947100148 -0.0080800010
H  1.5030001402 2.6925601959 -0.2792600095
H  3.4010202885 4.5270004272 -0.2639000416
H  5.7594804764 3.4397003651 0.1876400113
