15

C  0.9039400816 -0.1785000265 -0.0015100001
C  2.3718001842 0.1538800150 0.1705200076
C  3.5017902851 -0.6905700564 -0.5654500723
O  4.3630905151 0.5293000937 -0.2297500223
C  3.1017403603 1.1917300224 -0.7893600464
C  2.9639501572 0.6895000339 -2.1819400787
C  3.2409203053 -0.6123000383 -2.0268599987
H  0.2834400237 0.6516800523 0.3506800234
H  0.6442500949 -1.0633600950 0.5887000561
H  0.6293500066 -0.3809800446 -1.0404200554
H  2.5796301365 0.3267100155 1.2372200489
H  3.8674001694 -1.6163101196 -0.1225800142
H  3.0436902046 2.2601001263 -0.5837500095
H  2.7246401310 1.2409601212 -3.0747802258
H  3.2859802246 -1.3980801105 -2.7607803345
