13

N  1.2516701221 0.0153900012 0.6898000240
C  2.3809802532 0.0823600069 0.0819800049
N  3.0061402321 1.2722800970 -0.1128000095
C  2.6494400501 2.6323001385 0.2488700151
C  3.9691102505 3.0794103146 -0.4164100289
C  4.1861701012 1.5847101212 -0.7182800770
O  5.0244507790 0.9033100605 -1.2592900991
H  0.9477300644 -0.9641600847 0.7351800799
H  2.9141302109 -0.7961600423 -0.3168300092
H  2.5944402218 2.7941801548 1.3286900520
H  1.7382000685 2.9868600368 -0.2402300239
H  3.8575003147 3.7001402378 -1.3084601164
H  4.7130303383 3.5077803135 0.2593000233
