17

C  0.9172301292 -0.2828900218 -0.1218000054
C  2.3802702427 0.0248600021 -0.1928000152
C  2.9926602840 1.2005400658 0.0670699999
C  2.2432301044 2.4673602581 0.4214100242
O  2.3023302555 2.7001302242 1.8240501881
C  4.4517307281 1.2519600391 -0.0323600024
C  5.2382802963 2.2884702682 0.2855699956
H  0.7671800256 -1.1967101097 0.4629700482
H  0.5230700374 -0.4549200237 -1.1281101704
H  0.3269800246 0.5021000504 0.3549100459
H  2.9867703915 -0.8383001089 -0.4694600403
H  1.1898100376 2.4252901077 0.1323900074
H  2.6554801464 3.3392202854 -0.0976800099
H  2.3231103420 1.8265501261 2.2510502338
H  4.9469599724 0.3504600227 -0.3925000429
H  4.8544802666 3.2255201340 0.6743500233
H  6.3160805702 2.2116801739 0.1755200177
