15

O  0.9985900521 -0.0243000016 0.0363400020
C  2.4306702614 -0.0166800003 0.0044200006
C  2.9168701172 -1.2398000956 -0.7902100682
C  3.2623202801 -0.6729100347 -2.1332302094
C  3.2932801247 0.6637300253 -2.1158502102
C  2.9641902447 1.2129801512 -0.7663100958
O  4.1491203308 1.7248001099 -0.1739000231
H  0.7196600437 0.7801800370 0.5076200366
H  2.7868402004 -0.0555800013 1.0394700766
H  2.1468400955 -2.0124702454 -0.8742001057
H  3.8185403347 -1.6705101728 -0.3416900337
H  3.4754002094 -1.2839101553 -2.9997200966
H  3.5313901901 1.2882200480 -2.9654600620
H  2.2200000286 2.0124602318 -0.8287900090
H  4.8757805824 1.1215201616 -0.4074500501
