15

C  0.6051600575 -0.0477900058 0.1765700132
O  1.8451801538 0.6022600532 -0.1271200180
C  0.6596000195 1.4097701311 -0.2063900232
C  0.5967200398 2.5432202816 0.7808500528
C  0.2719200253 3.7423300743 -0.0704600066
C  0.1308100075 3.4080302715 -1.3628301620
C  0.3388000429 1.9323701859 -1.5803401470
H  0.4176700413 -0.3068200350 1.2106001377
H  0.2259200215 -0.7608200312 -0.5440800786
H  1.5487902164 2.6893601418 1.3007800579
H  -0.1966600120 2.3785502911 1.5172501802
H  0.1767600179 4.7439904213 0.3239700198
H  -0.0945600048 4.1011300087 -2.1607902050
H  -0.5778300166 1.4764801264 -1.9693701267
H  1.1567200422 1.7608700991 -2.2873501778
