13

O  1.7408400774 0.2367300093 0.9839200974
C  2.6213600636 -0.0000300000 0.1737900227
N  2.7500002384 -1.2039500475 -0.5145300627
C  4.0386500359 -1.3287700415 -1.1377100945
C  4.6330504417 0.0387300029 -0.9617500901
C  3.9538104534 1.2549400330 -1.5017701387
N  3.7159602642 0.8193500638 -0.1615000069
H  2.1420500278 -1.9728502035 -0.2681200206
H  4.6136507988 -2.0927002430 -0.6073099971
H  3.9112901688 -1.6056600809 -2.1870501041
H  5.6543402672 0.0681800097 -0.6160700321
H  4.5017304420 2.1849803925 -1.5571901798
H  3.1094002724 1.1554400921 -2.1710703373
