15

O  0.9583100677 0.2036900073 -0.0466300026
C  2.3273901939 -0.1399700046 0.1261400133
C  3.2213501930 1.0860201120 -0.1060900092
N  2.7720301151 2.0399401188 -0.8686200380
N  4.4587302208 1.0610400438 0.5241200328
C  5.5918302536 1.6372101307 -0.2187900245
C  5.0138802528 2.3564000130 0.9510200620
H  0.7496900558 0.8496000767 0.6525900364
H  2.5907902718 -0.9065200686 -0.6083800197
H  2.4773800373 -0.5396400690 1.1332100630
H  1.8349500895 1.7576601505 -1.2005201578
H  5.3656601906 1.9875001907 -1.2169301510
H  6.5068006516 1.0784500837 -0.0877100080
H  5.5250205994 2.3022100925 1.9007000923
H  4.3826899529 3.2175600529 0.7781400681
