17

C  1.4403600693 0.0686500072 0.0710200071
C  2.4806001186 1.1709800959 0.1246900037
O  3.7769603729 0.5660200119 0.0047800005
C  4.8420205116 1.4115902185 0.0253600013
C  6.1347203255 0.6537000537 -0.0726700053
N  4.7008504868 2.7018203735 0.1176200137
N  5.8435702324 3.4281504154 0.1128600091
H  0.4311500490 0.4795600474 0.1655600071
H  1.6042301655 -0.6562300920 0.8755400181
H  1.5109201670 -0.4820600450 -0.8728100657
H  2.4076402187 1.7005400658 1.0807601213
H  2.3188903332 1.8696901798 -0.7032500505
H  5.9501605034 -0.4234300256 -0.1240100116
H  6.7488808632 0.8556400537 0.8094500303
H  6.6721601486 0.9545600414 -0.9762901068
H  5.6244907379 4.3997302055 0.3481400311
H  6.2406706810 3.4717502594 -0.8292900920
