22

C  2.9727003574 -0.8954401016 -1.1524600983
C  2.5409603119 -0.0302800015 0.0254100021
C  3.0390901566 1.4374401569 -0.0124000013
C  2.4555501938 2.1794602871 -1.2280801535
N  2.5252404213 2.1220302582 1.1877000332
C  4.5828804970 1.5684500933 -0.0442600027
C  5.3322606087 0.8935601115 1.1004301310
H  2.5952601433 -1.9152300358 -1.0209500790
H  4.0616102219 -0.9565900564 -1.2354300022
H  2.5712001324 -0.5181200504 -2.0976402760
H  2.8759002686 -0.5183500051 0.9493800998
H  1.4430800676 -0.0425000042 0.0646200031
H  2.8427801132 1.7759500742 -2.1693501472
H  2.7154302597 3.2457902431 -1.2062200308
H  1.3623701334 2.1065402031 -1.2576200962
H  2.8112502098 1.6181300879 2.0255701542
H  1.5055301189 2.1026000977 1.1857300997
H  4.8565902710 2.6328799725 -0.0434600040
H  4.9682002068 1.1677601337 -0.9902100563
H  5.0417203903 1.3035401106 2.0719401836
H  6.4086508751 1.0573000908 0.9841000438
H  5.1644802094 -0.1865500212 1.1121701002
