17

C  0.8542200327 0.1689500213 -0.0641000047
C  2.3775401115 0.0276800022 0.0276100021
C  2.7429602146 -0.7577300668 1.2900500298
O  2.7934300900 -0.7511400580 -1.1010700464
C  3.0273902416 1.4328200817 0.0000000000
C  4.4709205627 1.4101901054 0.0289500020
C  5.6606903076 1.3915401697 0.0528200008
H  0.5643300414 0.6812300682 -0.9890701175
H  0.4482300282 0.7306500077 0.7846600413
H  0.3707800210 -0.8142800331 -0.0928600058
H  2.4641501904 -0.2120400220 2.1986701488
H  3.8155403137 -0.9767701030 1.3284901381
H  2.2368502617 -1.7297101021 1.3021101952
H  2.7740302086 -0.1821900159 -1.8891100883
H  2.6520104408 2.0258901119 0.8431500793
H  2.7125301361 1.9533101320 -0.9138801098
H  6.7259707451 1.3669900894 0.0737900063
