12

C  0.9950000644 0.0377000012 0.0028800003
C  2.4723300934 -0.0472400039 0.0040700003
N  3.2084701061 1.0716800690 0.0046600001
O  4.5303201675 0.6479000449 0.0060100006
C  4.5633006096 -0.7082300782 0.0064000003
O  5.7731304169 -1.2403101921 0.0078500006
C  3.2871901989 -1.2037299871 0.0052100001
H  0.5425000191 -0.9590401053 -0.0099900011
H  0.6410400271 0.5807600021 -0.8793200850
H  0.6388800144 0.5591000319 0.8971900940
H  5.6564807892 -2.2038800716 0.0081600007
H  2.9796001911 -2.2373301983 0.0052300002
