16

N  0.7719000578 0.0319100022 -0.0759500116
C  2.2088501453 0.0059400005 0.1899800152
C  3.1076204777 -0.9022200704 -0.6085800529
C  2.6899101734 -1.4616202116 -1.9321801662
C  2.9334602356 -0.3122500181 -2.9064002037
O  2.8075902462 0.8982600570 -2.1374101639
C  3.2036402225 0.5860700011 -0.7767300606
H  0.3931000233 0.9609300494 0.0993500054
H  0.2754400074 -0.6090900302 0.5384799838
H  2.4636900425 0.1284300089 1.2415001392
H  3.9230403900 -1.4230000973 -0.1308600157
H  3.2599503994 -2.3517301083 -2.2150201797
H  1.6288300753 -1.7372701168 -1.9222000837
H  3.9535501003 -0.3487500250 -3.3049004078
H  2.2256503105 -0.3081400096 -3.7397003174
H  4.0696902275 1.0973000526 -0.3734800220
