14

C  2.4755501747 -1.6983001232 0.1983900070
C  2.6399602890 -0.4717700183 -0.6601300240
O  2.2674400806 -0.4538900256 -1.8344200850
C  3.2874002457 0.7327700853 -0.0354500040
C  4.7837500572 0.6890400052 -0.1447100043
N  5.3613305092 1.7347401381 -0.8027500510
O  5.4664206505 -0.2072900236 0.3381000459
H  3.4496400356 -2.0489602089 0.5451400280
H  2.0026102066 -2.4931800365 -0.3849700391
H  1.8339301348 -1.4616701603 1.0517400503
H  3.0123302937 0.7940900326 1.0220201015
H  2.8835501671 1.6297100782 -0.5164600015
H  4.8322105408 2.3429203033 -1.4140801430
H  6.3617506027 1.6814801693 -0.9520400763
