16

C  0.9507900476 -0.8987800479 -1.2482101917
C  1.8169901371 -0.5797100067 -0.2793000042
C  2.4687101841 0.7599300742 -0.1303300112
N  3.9182202816 0.5913100839 -0.1835400015
C  4.5880603790 1.8936001062 -0.1054700017
C  6.0838804245 1.6691001654 -0.1463600099
O  6.7893605232 1.9725501537 -1.1053301096
H  0.5136700273 -1.8925501108 -1.2948400974
H  0.6592800617 -0.1868600100 -2.0145101547
H  2.0740900040 -1.3297799826 0.4671500325
H  2.1732103825 1.1836901903 0.8365401030
H  2.1287803650 1.4440701008 -0.9170500636
H  4.1527104378 0.1630100161 -1.0825200081
H  4.3555302620 2.4089500904 0.8322900534
H  4.3077101707 2.5376603603 -0.9459300637
H  6.5173707008 1.1879601479 0.7475000024
