12

C  5.1990504265 -1.5716401339 0.8279300928
C  4.3495607376 -0.5400800705 0.7775700688
C  3.0051202774 -0.7098900676 0.1940500140
N  2.1711702347 0.2738700211 0.1284000129
O  0.9784901142 -0.1713700145 -0.4687700272
C  0.0890700072 0.8636700511 -0.5713400841
O  0.2242800146 2.0295300484 -0.2313900143
H  6.1878600121 -1.4430500269 1.2575100660
H  4.9450402260 -2.5562901497 0.4504200220
H  4.6047005653 0.4440700412 1.1540800333
H  2.7522702217 -1.7176101208 -0.1820000112
H  -0.8279100657 0.4696700275 -1.0365600586
