17

C  0.9886800647 -0.0110000009 -0.0054400004
C  2.5236802101 -0.0075100008 0.0106700007
C  3.0237503052 -0.7190600634 1.2756301165
C  3.0501103401 -0.7408500314 -1.2309201956
C  3.0321803093 1.4409000874 0.0034300003
H  0.6006300449 0.4926000535 -0.8981800675
H  0.5820100307 0.5054000020 0.8715700507
H  0.5947000980 -1.0337301493 -0.0022000002
H  2.6649301052 -0.2164600044 2.1810901165
H  4.1189403534 -0.7343700528 1.3149501085
H  2.6746501923 -1.7573901415 1.3104500771
H  2.7077503204 -0.2560900152 -2.1523401737
H  2.7043802738 -1.7806402445 -1.2532900572
H  4.1458902359 -0.7537300587 -1.2486500740
H  2.6917302608 1.9759302139 -0.8904700279
H  4.1275305748 1.4763901234 0.0159000009
H  2.6710600853 1.9920401573 0.8792400956
