13

C  0.8607800603 0.0434400029 -0.0032500003
C  2.3505601883 0.0310400017 -0.0043300004
C  3.2306101322 1.0880501270 -0.0020400002
O  2.7999801636 2.3622500896 0.0019300001
C  4.5904102325 0.6859100461 -0.0043300004
C  4.7103700638 -0.6872500777 -0.0085000005
S  3.1869702339 -1.4662301540 -0.0096800001
H  0.4688500166 1.0658601522 0.0091400007
H  0.4697300196 -0.4726300538 0.8800000548
H  0.4690900445 -0.4517100453 -0.8980500698
H  3.5560901165 2.9731302261 0.0030400001
H  5.4439406395 1.3515400887 -0.0030900002
H  5.6188607216 -1.2740501165 -0.0110000009
