15

N  0.8772301078 0.0417000018 -0.0017900001
C  2.1704502106 0.0221700016 0.0261200015
C  2.8635001183 -1.3372701406 0.0484700017
C  4.3545703888 -1.2292801142 0.0264500026
C  4.9978804588 -0.0543000065 -0.0132200001
C  4.3288002014 1.2822600603 -0.0404700004
N  2.8911502361 1.1812601089 0.0450000055
H  0.5504000187 1.0084201097 -0.0045000003
H  2.5212903023 -1.9122501612 -0.8192101121
H  2.5454502106 -1.8670902252 0.9531500936
H  4.9184002876 -2.1574101448 0.0428600013
H  6.0848608017 -0.0489000045 -0.0299300030
H  4.6932902336 1.8850201368 0.7978100777
H  4.5996003151 1.8017500639 -0.9656301141
H  2.3921103477 2.0568301678 -0.0178500023
