18

C  0.6247100234 -0.0452200025 -0.0045100003
C  2.0999002457 -0.2626000047 -0.3375500143
N  2.2487201691 -0.6824300885 -1.7315702438
C  2.9261002541 0.9740000367 -0.0487900041
C  2.7355401516 2.1968202591 -0.8958600760
C  3.4936802387 1.1499400139 1.3466300964
O  4.3061003685 0.7033100724 0.2543600202
H  0.5062700510 0.2706300020 1.0373300314
H  0.0520500056 -0.9689700603 -0.1423000097
H  0.1726800054 0.7266100645 -0.6364300847
H  2.4655902386 -1.0870600939 0.2877300382
H  1.8077101707 -0.0041000000 -2.3492803574
H  1.7522600889 -1.5601100922 -1.8754301071
H  3.3904900551 3.0155801773 -0.5756800175
H  1.7043901682 2.5586502552 -0.8306500316
H  2.9650902748 1.9910900593 -1.9464300871
H  3.2479903698 0.4249000549 2.1124300957
H  3.6689302921 2.1502001286 1.7222701311
