14

N  1.2477900982 1.2015000582 -1.7857102156
C  2.4995701313 1.3803901672 -1.5494900942
N  3.2754302025 0.4684400558 -0.9134801030
C  4.5197300911 0.8899000883 -0.2903600037
C  5.6816501617 -0.0587300062 -0.2026400119
C  5.7563300133 1.1371001005 -1.1067700386
H  0.8766700625 2.0198001862 -2.2813501358
H  3.0263402462 2.3002300262 -1.8584800959
H  2.7411003113 -0.2994800210 -0.5176700354
H  4.3555107117 1.5317301750 0.5720800161
H  5.5869803429 -1.0346001387 -0.6644901037
H  6.2768301964 -0.0498000011 0.7027600408
H  6.4008703232 1.9574301243 -0.8142400384
H  5.7098002434 0.9650700688 -2.1758501530
