11

C  0.9693600535 0.0437700041 -0.0052800006
C  2.4473302364 -0.0281900018 -0.0018600001
N  3.1853802204 1.0882201195 -0.0010000000
O  4.5038204193 0.6663000584 0.0021200003
C  4.5420703888 -0.6883300543 0.0029500001
C  3.2633404732 -1.1820200682 0.0004500000
H  0.6141900420 1.0797400475 0.0048800004
H  0.5610400438 -0.4618500471 0.8756400943
H  0.5663099885 -0.4429300427 -0.8991800547
H  5.5267004967 -1.1289200783 0.0052900007
H  2.9628400803 -2.2182002068 0.0003100000
