15

C  0.9314400554 -0.0086400006 0.9617601037
C  0.2908399999 -1.0215700865 -0.0288300030
C  0.7580800056 -0.0271500032 -1.1301200390
C  0.2893500328 0.9986300468 -0.0473700017
N  -1.1657601595 0.7458700538 0.0661800057
C  -1.1894201040 -0.7218800783 0.0941000059
H  2.0269901752 -0.0079300003 1.0018900633
H  0.5468300581 -0.0012800001 1.9866400957
H  0.6509400606 -2.0481600761 -0.0489800051
H  0.2099900097 -0.0385000035 -2.0778501034
H  1.8321901560 -0.0292700026 -1.3500400782
H  0.6321499944 2.0308802128 -0.0883000046
H  -1.5799601078 1.1100101471 0.9238800406
H  -1.7656301260 -1.1216400862 -0.7459200621
H  -1.6080801487 -1.1011601686 1.0320800543
