17

C  0.9494600892 0.0258000027 0.1383000016
N  2.2527401447 -0.3450000286 -0.3964500427
C  2.6311302185 -1.6694800854 -0.3773300350
N  3.7893702984 -2.1904101372 -0.5821999907
C  3.3034102917 0.6848000288 -0.3068300188
C  4.1712002754 1.0168701410 -1.4922502041
C  3.1656303406 2.0134902000 -1.0032800436
H  0.6700700521 1.0408900976 -0.1615900099
H  0.9578600526 -0.0225300025 1.2322001457
H  0.1703900099 -0.6478600502 -0.2349300236
H  1.7906800508 -2.3499400616 -0.1549600065
H  4.4547405243 -1.4430800676 -0.7928200960
H  3.7809302807 0.6960800886 0.6709500551
H  3.9691004753 0.5151300430 -2.4318802357
H  5.2199301720 1.2201200724 -1.3114401102
H  3.5317604542 2.8941502571 -0.4888800085
H  2.2988102436 2.1909601688 -1.6284700632
