16

O  0.7386200428 0.0127100013 -0.0238900017
C  2.1508302689 0.0334799998 0.2112700045
C  2.9970901012 -0.8384600878 -0.6733200550
C  2.5148901939 -1.4290001392 -1.9575401545
N  2.7881500721 -0.3644800186 -2.9435603619
C  2.5659201145 0.9165601134 -2.2483901978
C  3.0228302479 0.6405700445 -0.8533800244
H  0.3237900138 0.8512500525 0.2406400144
H  2.4774901867 0.1428400129 1.2417401075
H  3.8661601543 -1.3302700520 -0.2611500323
H  3.0616800785 -2.3398301601 -2.2193601131
H  1.4457101822 -1.6624500751 -1.9309401512
H  3.7782304287 -0.4174800217 -3.1802902222
H  3.1504702568 1.7125201225 -2.7195301056
H  1.5079600811 1.1957000494 -2.2865502834
H  3.9144802094 1.1805500984 -0.5685000420
