14

C  2.8749201298 -0.9342300296 0.7825400233
O  2.8268201351 -0.1906800121 -0.4304800332
N  3.3806302547 1.0671601295 -0.2009100169
C  2.6702001095 2.1734004021 0.1614800096
C  3.5585501194 3.2250301838 0.2494100183
C  4.8403100967 2.7261703014 -0.1040000096
C  4.6924405098 1.3859201670 -0.3963000178
H  2.4359500408 -1.9179601669 0.5942800641
H  2.2898001671 -0.4428300261 1.5669701099
H  3.9089703560 -1.0784400702 1.1129100323
H  1.6036000252 2.1187801361 0.3246200383
H  3.3102803230 4.2432603836 0.5218500495
H  5.7647104263 3.2871000767 -0.1547800153
H  5.4007501602 0.6386100054 -0.7233400345
