15

C  3.1347804070 -1.1804500818 0.4008500278
N  2.5495903492 0.0138900010 -0.1740500182
C  3.1452202797 1.2264901400 -0.0877500102
C  2.5953900814 2.4862504005 -0.1849500239
C  3.6433703899 3.4283103943 -0.0361299999
C  4.8096504211 2.7173600197 0.1332700104
N  4.4964399338 1.3826501369 0.0900200084
H  2.4763600826 -2.0349001884 0.2152600139
H  3.2557303905 -1.0747801065 1.4838000536
H  4.1051006317 -1.4080001116 -0.0519200042
H  1.5306500196 -0.0002200000 -0.1853100210
H  1.5488200188 2.7071301937 -0.3434900343
H  3.5549302101 4.5062899590 -0.0581000037
H  5.8318800926 3.0416302681 0.2708700299
H  5.1606903076 0.6271700859 0.1606700122
