11

C  0.9457600713 0.0194200017 -0.0055600004
C  2.4331400394 0.0346600004 -0.0015500002
N  3.0669300556 1.2081501484 0.0010500001
S  4.7021403313 0.9424900413 0.0050800005
C  4.6037406921 -0.7636801004 0.0032500003
C  3.2734701633 -1.1258200407 -0.0005000000
H  0.5295600295 1.0315901041 0.0040600002
H  0.5700100064 -0.5097800493 0.8757700324
H  0.5748800635 -0.4911800325 -0.8998301029
H  5.4843306541 -1.3893800974 0.0050100004
H  2.9215400219 -2.1490902901 -0.0024200000
