12

C  0.9875200987 0.1971600205 0.1397100091
C  2.3151400089 0.0598300062 -0.0326400027
C  2.9869501591 -1.2887200117 -0.0532400049
C  3.3855903149 -1.6489602327 -1.4223800898
C  3.7148401737 -1.9450302124 -2.5390303135
C  3.1337802410 1.2251501083 -0.1523600221
N  3.7954704762 2.1751599312 -0.2336500287
H  0.5141800046 1.1757601500 0.1688800156
H  0.3362300098 -0.6653200388 0.2462700158
H  2.3164303303 -2.0613100529 0.3431800306
H  3.8635504246 -1.2782500982 0.6060300469
H  4.0095601082 -2.2026901245 -3.5305502415
