18

C  0.7741800547 -0.2905000150 -0.5451600552
C  2.1905701160 -0.1285600066 -0.0469300039
C  3.2916603088 -0.6112000346 -0.9799700975
N  3.0266201496 0.8078700900 -0.8183000684
C  2.4104402065 -0.1486000121 1.4832401276
C  1.7841001749 0.8840500116 2.3937401772
C  1.3675400019 -0.5527400374 2.4990701675
H  0.7069700360 -0.2105800062 -1.6364301443
H  0.1229100078 0.4801900387 -0.1190300062
H  0.3833700120 -1.2731301785 -0.2625000179
H  3.0163502693 -1.0418100357 -1.9347001314
H  4.2138404846 -0.9881901145 -0.5561200380
H  3.7126202583 1.2494500875 -0.2049400061
H  3.4276103973 -0.4336300194 1.7636702061
H  1.0808900595 1.5880101919 1.9637701511
H  2.3957200050 1.2986700535 3.1863303185
H  1.6986701488 -1.1154601574 3.3648903370
H  0.3715400398 -0.8154600859 2.1645300388
