19

C  2.9830703735 -1.2438900471 -0.8158500195
C  2.6271302700 -0.1737600118 0.2067300230
O  3.0084702969 -0.6381400824 1.5082900524
C  3.2711303234 1.2129700184 -0.0819500089
N  2.8771302700 2.1618199348 0.9907100797
C  4.8195605278 1.1687500477 -0.1594200134
N  5.4340701103 0.7760200500 1.1220800877
H  2.7599802017 -0.9121300578 -1.8338102102
H  2.4109501839 -2.1565501690 -0.6157300472
H  4.0378603935 -1.5291801691 -0.7534300685
H  1.5359400511 -0.0610700026 0.2214400172
H  3.9761703014 -0.4704900384 1.5770601034
H  2.8912701607 1.5937201977 -1.0372700691
H  3.0141901970 1.6627100706 1.8769102097
H  1.8643101454 2.2880001068 0.9488601089
H  5.1980404854 2.1602201462 -0.4355600476
H  5.1466202736 0.4778300226 -0.9423100948
H  5.2066202164 1.5215300322 1.7889201641
H  6.4493203163 0.8259100318 1.0163800716
