18

C  0.9714601040 -0.0116100013 0.0119200014
C  2.4864001274 0.0139600011 0.0259300023
C  3.1501901150 1.0572000742 0.9622900486
C  4.2418699265 0.0056500006 1.2474300861
C  3.1955201626 -1.0792400837 0.8838700652
C  3.7135002613 -2.2943000793 0.1415500194
H  0.6071800590 -0.8729600906 -0.5559599996
H  0.5761600137 0.8937800527 -0.4582800567
H  0.5584000349 -0.0748000070 1.0244801044
H  2.8825204372 0.0752200037 -0.9972900748
H  2.5555102825 1.3201800585 1.8451501131
H  3.4936003685 1.9758701324 0.4799100459
H  5.0945706367 0.0641900003 0.5608000755
H  4.6153302193 -0.0209300034 2.2743902206
H  2.6032102108 -1.3837100267 1.7591001987
H  4.3149805069 -2.0108501911 -0.7285000682
H  2.8824501038 -2.9137001038 -0.2091800123
H  4.3376102448 -2.9085800648 0.7983400822
