16

N  0.9821100235 -0.0208600014 -0.1354500204
C  2.4392499924 -0.0142000010 -0.0281200018
C  3.0274603367 -1.2221901417 -0.6815600395
C  4.0681905746 -0.9123900533 -1.4642100334
C  4.3404703140 0.5602400899 -1.4768501520
C  3.0730104446 1.1480300426 -0.8458600640
O  2.1800701618 1.5816901922 -1.8869301081
H  0.6265300512 0.8695700765 0.2173000276
H  0.6098000407 -0.7352100611 0.4895300269
H  2.7564003468 0.0279400032 1.0197501183
H  2.6743302345 -2.2300603390 -0.5121000409
H  4.6601705551 -1.6310701370 -2.0142500401
H  5.2260904312 0.7695500851 -0.8679500222
H  4.5004305840 0.9230700731 -2.4966001511
H  3.2846803665 2.0219101906 -0.2220800072
H  1.4592401981 0.9158400893 -1.8829801083
