18

C  2.3211603165 -0.6315200925 -1.4490802288
C  2.4011902809 0.1777900010 -0.1795800179
C  1.5857400894 -0.1007700115 0.8523000479
C  3.4520702362 1.2126500607 -0.1270700097
C  3.4925000668 2.2911801338 -1.1801100969
C  3.0790703297 2.6371300220 0.2170300037
N  3.9693002701 3.4465000629 1.0493500233
H  3.3062300682 -1.0349301100 -1.7050601244
H  1.9734301567 -0.0092600007 -2.2795000076
H  1.6320301294 -1.4776700735 -1.3564100266
H  0.8363200426 -0.8839500546 0.7953600287
H  1.6510401964 0.4533900321 1.7836802006
H  4.4094300270 0.8406201005 0.2258200198
H  2.7235202789 2.3237400055 -1.9433801174
H  4.4633803368 2.6204001904 -1.5315300226
H  2.0233502388 2.8650603294 0.3535400331
H  4.9467000961 3.2023203373 0.8961700797
H  3.7889103889 3.2669701576 2.0368101597
