16

C  1.3867901564 -0.6617900729 -0.8603900671
C  2.5675303936 -0.4470000565 -0.8038200736
C  4.0156202316 -0.1843100190 -0.7409500480
C  4.4525003433 0.1757400185 0.6833100319
N  5.8998703957 0.4335300326 0.7152700424
C  6.2461504936 1.8508501053 0.7767500281
C  6.3526306152 0.9715901017 1.9950301647
H  0.3401000202 -0.8539400697 -0.9138700366
H  4.2642402649 0.6334400773 -1.4282500744
H  4.5603203773 -1.0718001127 -1.0855501890
H  4.2320303917 -0.6678900719 1.3504800797
H  3.8581302166 1.0242100954 1.0508400202
H  5.4552903175 2.5897500515 0.7380100489
H  7.1632204056 2.1341102123 0.2741700113
H  7.3399004936 0.6585000157 2.3124001026
H  5.6286406517 1.0950000286 2.7910301685
