17

N  1.5393800735 -0.3242500126 -0.4900800586
C  2.8380200863 0.0181100015 0.1055400074
C  3.6693704128 -1.0996000767 0.6817900538
C  4.0783500671 -0.4138200283 -0.5941200256
C  5.0313205719 0.7356700301 -0.6035600305
N  4.1785302162 1.8953801394 -0.3132900298
C  3.0838901997 1.4445401430 0.5579900146
H  1.3501300812 0.3035800457 -1.2725501060
H  0.7871700525 -0.1747100204 0.1803100109
H  3.2888102531 -2.1120502949 0.6073300242
H  4.2424006462 -0.9105100632 1.5810301304
H  4.0032505989 -0.9387100339 -1.5351802111
H  5.8013405800 0.6136300564 0.1660800129
H  5.5171203613 0.8553600907 -1.5759801865
H  4.7176403999 2.6275701523 0.1413900107
H  3.3843302727 1.4727101326 1.6111501455
H  2.2068800926 2.0845201015 0.4235200584
