15

C  1.4236000776 0.8123700619 0.4480300248
C  2.8860502243 0.5418600440 0.2625600100
N  3.7085902691 1.5256900787 0.1113900095
N  5.0526103973 1.2704700232 -0.0591800027
C  5.6312403679 -0.0601100065 -0.0830000043
C  5.8729505539 2.3811702728 -0.2146600187
O  7.0883903503 2.3740301132 -0.3779200315
H  1.1052800417 0.3903800547 1.4047900438
H  0.8685400486 0.3188500404 -0.3540300429
H  1.2164900303 1.8852701187 0.4322400093
H  3.1821103096 -0.5197500587 0.2655000091
H  5.1906805038 -0.6280400753 -0.9075600505
H  5.4301304817 -0.5557600260 0.8711600900
H  6.7141504288 -0.0224900022 -0.2303000242
H  5.3012204170 3.3242402077 -0.1759900153
