16

O  1.0383100510 0.0926700085 -0.2654200196
C  2.4631402493 0.0945600048 -0.0236600004
C  2.9836702347 1.0451201200 1.0791901350
N  3.9109003544 -0.0181499999 1.5344301462
C  3.0269901752 -1.0218300819 0.8971800208
C  3.7787103653 -2.1472899914 0.2873200178
C  4.6939201355 -2.0041401386 -0.6823200583
H  0.8887000680 -0.6908100843 -0.8220500946
H  2.9993600845 0.2345800251 -0.9707900882
H  2.2354402542 1.3238201141 1.8302301168
H  3.4766705036 1.9538201094 0.7223400474
H  4.8359804153 0.0395300053 1.1109600067
H  2.2704901695 -1.4079201221 1.5954400301
H  3.5615801811 -3.1397802830 0.6734600663
H  4.9642505646 -1.0424200296 -1.1033800840
H  5.2105607986 -2.8748099804 -1.0763800144
