13

C  1.2666500807 -0.7872200608 0.2412300259
C  2.4725303650 -0.3294200301 -0.1111800075
C  2.7857604027 1.1077201366 0.0102300011
N  3.9444901943 1.5732501745 -0.3287000358
N  4.0912303925 2.9143402576 -0.1621199995
C  5.2697200775 3.5307004452 -0.4874000251
O  5.4622602463 4.7334504128 -0.3584800363
H  1.0359600782 -1.8450201750 0.1520900130
H  0.4834400415 -0.1397200078 0.6221900582
H  3.2528603077 -0.9782900810 -0.4918300211
H  1.9794201851 1.7533102036 0.4033700228
H  3.3424303532 3.4911403656 0.2047700137
H  6.0322403908 2.8368601799 -0.8786900640
