20

C  1.1153001785 -0.1049800068 0.0913600028
C  2.6301403046 -0.2417000234 0.0890700072
C  3.3114702702 1.1134500504 -0.1127000079
C  4.8459901810 1.0562601089 0.0048000002
C  5.4820904732 0.1438700110 -1.0454900265
C  5.4279303551 2.4674000740 -0.1160500050
H  0.6463600397 -1.0860201120 0.2214900106
H  0.7578600645 0.3197200298 -0.8519000411
H  0.7804200649 0.5416700244 0.9089300632
H  2.9148900509 -0.9336801171 -0.7108300328
H  2.9531002045 -0.6853000522 1.0377800465
H  2.9277801514 1.8164701462 0.6378700733
H  3.0303502083 1.5183000565 -1.0933001041
H  5.1078104973 0.6687500477 0.9985401034
H  5.1832203865 0.4358300269 -2.0573000908
H  5.1946601868 -0.9001901150 -0.8911100626
H  6.5748906136 0.1894000024 -0.9889001250
H  5.2039599419 2.9061903954 -1.0938000679
H  6.5157408714 2.4518501759 0.0075200005
H  5.0149106979 3.1261301041 0.6547100544
