16

C  1.4097400904 0.4144300222 -0.4439700246
C  2.6455800533 -0.0886200070 0.2258600146
C  2.8292102814 -1.6000800133 0.3513500094
C  4.2964301109 -1.8424301147 0.0756500065
C  4.9087600708 -0.6700600386 -0.1717100143
C  4.0126500130 0.4911100268 -0.1161500067
N  3.3552701473 0.8195700645 1.1379400492
H  1.4406400919 1.4976401329 -0.6044000983
H  0.5307100415 0.1891900152 0.1686200202
H  1.2776601315 -0.0633600056 -1.4200900793
H  2.2223300934 -2.1363401413 -0.3859500289
H  2.5584902763 -1.9429901838 1.3551601171
H  4.7688102722 -2.8124902248 0.0844000056
H  5.9629502296 -0.5701400042 -0.3948500156
H  4.0899300575 1.2550901175 -0.8783100843
H  3.7803502083 0.3040400445 1.9098501205
