11

C  1.0015600920 -0.0135500003 -0.0559500046
C  2.4900500774 -0.0483600013 0.0006300000
C  3.2746503353 -0.7468200326 -1.0786000490
N  3.2582602501 0.7111300826 -0.9789100289
H  0.6167700291 0.7476300597 0.6285099983
H  0.5928300619 -0.9814500809 0.2479700148
H  0.6295600533 0.2134600133 -1.0599399805
H  2.8706603050 -0.0768900067 1.0147900581
H  2.7415802479 -1.1694301367 -1.9212100506
H  4.1990704536 -1.2422001362 -0.8110600114
H  4.1279902458 1.0593000650 -0.5713400841
