11

C  2.9380402565 -1.2146301270 0.3874500394
C  2.3860101700 -0.0243400019 0.1160400063
C  3.0744402409 1.2219400406 0.0885000080
N  2.5152900219 2.3896801472 -0.1809000075
C  3.4803800583 3.3789503574 -0.1180900112
N  4.7398505211 3.0729203224 0.1776200086
S  4.7698702812 1.4209600687 0.4047700167
H  2.3206601143 -2.1089200974 0.3822400272
H  3.9878504276 -1.3569301367 0.6192700267
H  1.3225201368 0.0221400019 -0.1056000069
H  3.2210402489 4.4128403664 -0.3089000285
