15

C  1.1165500879 -0.1059200093 0.1223300099
C  2.4338002205 0.0119300010 -0.0658500046
C  3.2369401455 1.2744001150 -0.0333900005
C  4.4905004501 0.8912600875 -0.8107700348
C  4.4931206703 -0.6026000381 -0.7105800509
C  5.5386004448 -1.4157600403 -0.8793801069
O  3.2382900715 -1.0702700615 -0.3681900203
H  0.6349400282 -1.0759301186 0.0573000051
H  0.4981900454 0.7567800879 0.3420700431
H  3.4932503700 1.5262200832 1.0026301146
H  2.7219402790 2.1252801418 -0.4891700447
H  4.3954701424 1.1937401295 -1.8599500656
H  5.3872504234 1.3530800343 -0.3868700266
H  5.4268007278 -2.4888601303 -0.7649800181
H  6.5193104744 -1.0296601057 -1.1326199770
