17

C  1.0116001368 -0.0657400042 0.0410900041
C  2.5295801163 -0.0062500001 -0.0211700015
O  2.9326202869 0.0020600003 -1.4135800600
C  3.1735801697 1.0808200836 0.8782400489
C  4.2299604416 0.0454200022 1.3009500504
C  3.2626802921 -1.0751500130 0.8579700589
O  3.8711802959 -2.1637403965 0.1307000071
H  0.6489600539 -0.0809499994 1.0743900537
H  0.6379900575 -0.9664800763 -0.4565800428
H  0.5686500072 0.8033201098 -0.4556300342
H  3.8936803341 0.1732400209 -1.4041500092
H  2.5399200916 1.4229600430 1.7040700912
H  3.5699403286 1.9557100534 0.3558500409
H  5.1540203094 0.0903100073 0.7117900252
H  4.4896903038 0.0512200035 2.3619301319
H  2.6518602371 -1.4631301165 1.6825300455
H  3.4479002953 -2.1319801807 -0.7481600642
