13

O  1.4869301319 0.2352200150 1.1540800333
C  2.3447003365 0.0921000093 0.2984100282
C  2.9888401031 -1.2200001478 -0.1165600047
C  3.9854702950 -0.8608800769 -1.1723501682
C  5.1392502785 0.0624000020 -0.8803001046
C  3.8441002369 0.6049600840 -1.4093301296
O  2.8894202709 1.1087501049 -0.4499400258
H  2.2181401253 -1.8803601265 -0.5220900774
H  3.4807803631 -1.6790100336 0.7452300787
H  4.0353302956 -1.5393500328 -2.0102601051
H  5.4029502869 0.2694400251 0.1503000110
H  5.9894003868 0.0418900065 -1.5543000698
H  3.8083102703 0.9752600789 -2.4265303612
