12

C  0.9655000567 0.0496600047 -0.4761100411
O  2.3831202984 0.1305800080 -0.3169800341
C  2.9970302582 1.3225800991 -0.1447700113
N  2.5727202892 2.5425400734 -0.0750000030
O  1.1898701191 2.6838502884 -0.2003700137
C  4.4264402390 1.2307900190 -0.0081400005
C  5.6196208000 1.1496901512 0.1054000035
H  0.7068700790 -1.0054900646 -0.6051800251
H  0.6470000148 0.5840300322 -1.3754700422
H  0.4555300474 0.4113700390 0.4210400283
H  1.0721701384 3.6495103836 -0.1226100102
H  6.6778106689 1.0805100203 0.2063200176
