20

C  2.9658701420 -1.0358401537 -0.6774000525
C  2.3987302780 0.1577600092 0.0750000030
C  3.3625402451 1.3055201769 0.0942200050
C  3.4740502834 2.3124701977 -1.0323100090
C  2.6401002407 2.2463502884 -2.2667000294
C  2.8466103077 2.7109103203 0.2779700160
N  3.5617303848 3.6278402805 1.1605700254
H  2.2570700645 -1.8691701889 -0.6590500474
H  3.9036602974 -1.3740401268 -0.2255800217
H  3.1701202393 -0.7829600573 -1.7222201824
H  2.1899802685 -0.1395000070 1.1095501184
H  1.4376801252 0.4436000288 -0.3670900166
H  4.2820801735 1.0339601040 0.6024100780
H  4.4668102264 2.6841602325 -1.2608400583
H  1.5953501463 1.9941101074 -2.0597400665
H  3.0445103645 1.4989900589 -2.9554402828
H  2.6522600651 3.2153003216 -2.7749302387
H  1.7664800882 2.8489801884 0.2844000161
H  4.5694999695 3.4886002541 1.1046401262
H  3.3091902733 3.4573702812 2.1333901882
