17

C  1.8914002180 -1.5729000568 0.6070000529
C  3.2236402035 -1.0245901346 0.1232000068
C  3.1484503746 0.4772000313 -0.1409000158
C  4.4693799019 1.0338901281 -0.6166200638
O  5.4941501617 0.3874000311 -0.7882200480
O  4.3455405235 2.3754301071 -0.8273900151
C  5.5454707146 3.0047202110 -1.2796401978
H  1.9692400694 -2.6488101482 0.7932900190
H  1.1066700220 -1.4134100676 -0.1396300048
H  1.5827400684 -1.0884900093 1.5391601324
H  3.5207703114 -1.5506601334 -0.7919000983
H  3.9952001572 -1.2343801260 0.8732200265
H  2.8695802689 1.0009500980 0.7807201147
H  2.3948402405 0.6809500456 -0.9096601009
H  5.3374304771 4.0686903000 -1.4205100536
H  5.8611102104 2.5835902691 -2.2395401001
H  6.3371305466 2.9024503231 -0.5312400460
