17

C  0.9276700616 0.0265900027 0.0675200075
C  2.4415302277 0.0304100011 0.0077600004
C  3.1677002907 1.0274000168 0.9418400526
C  4.2260403633 -0.0703100115 1.2144801617
C  3.1662101746 -1.1067301035 0.7677600384
C  5.5507402420 -0.0056000007 0.4115900397
O  5.6732602119 0.0945500061 -0.8090800643
H  0.5227200389 -0.8139900565 -0.5038000345
H  0.5243900418 0.9496500492 -0.3597600460
H  0.5641400218 -0.0570500046 1.0966501236
H  2.7885103226 0.1146900132 -1.0319401026
H  2.6002001762 1.3132100105 1.8351100683
H  3.5327701569 1.9368401766 0.4556700289
H  4.4551305771 -0.1577600092 2.2853500843
H  3.5291402340 -1.9260801077 0.1401100010
H  2.5974900723 -1.5327900648 1.6027301550
H  6.4595403671 -0.0586000048 1.0358401537
