15

O  0.9954600930 -0.1239600107 0.0905800089
C  2.2063302994 -0.0405600034 0.0395900048
C  3.2042703629 -1.1918400526 0.0707700104
C  4.5269403458 -0.3835700154 -0.0244800020
C  4.3109002113 0.7194500566 -1.1308801174
C  3.2293102741 1.1809600592 -0.0737200081
C  4.3851704597 0.8472800851 0.9525400996
H  3.0693202019 -1.8443201780 -0.7945300341
H  3.1348903179 -1.7380201817 1.0139701366
H  5.4654703140 -0.9371800423 -0.0242500007
H  3.9270901680 0.3697600365 -2.0935101509
H  5.1461606026 1.4066300392 -1.3063100576
H  2.8330702782 2.1915402412 -0.1214100048
H  5.2279205322 1.5470001698 0.9831501245
H  4.0723700523 0.6187900305 1.9754501581
