13

C  0.9061000943 0.0446900055 -0.0060700001
C  2.4186401367 0.0084500005 -0.0059900004
C  3.1282701492 0.9721100926 0.9439600706
O  4.1494302750 0.0205300022 1.3210802078
S  3.2177903652 -1.2610901594 0.9119900465
O  2.4587900639 -1.6864202023 2.0650601387
O  3.9751603603 -2.1538200378 0.0647700056
H  0.5010100603 -0.8005900383 -0.5714600682
H  0.5444900393 0.9653500915 -0.4752700329
H  0.4949400425 0.0016700001 1.0076700449
H  2.8139703274 0.0585700050 -1.0281600952
H  2.5493302345 1.2946600914 1.8177201748
H  3.5564801693 1.8581501245 0.4655200243
