17

C  4.6419005394 1.0416800976 -1.9268501997
C  5.8608207703 1.5967901945 -1.2129700184
O  5.8186302185 3.0200102329 -1.3102101088
C  6.7907605171 3.7455704212 -0.6484100819
C  7.8251705170 3.2343101501 0.0379400030
C  6.5715804100 5.2385106087 -0.7397500277
O  5.1866803169 5.5341706276 -0.5822100639
H  4.6310105324 -0.0515900068 -1.8888500929
H  4.6283707619 1.3602701426 -2.9746901989
H  3.7221903801 1.4196500778 -1.4674102068
H  6.7692208290 1.2149001360 -1.6922101974
H  5.8314905167 1.2845600843 -0.1629500240
H  8.0124101639 2.1714203358 0.1287500113
H  8.5365104675 3.8862903118 0.5378500819
H  6.8887205124 5.6037006378 -1.7220702171
H  7.1223106384 5.7871003151 0.0310800020
H  4.7180404663 4.7835803032 -0.9941800833
