15

C  -1.3109101057 0.6591600776 0.0348200016
C  -1.0252600908 -0.7852100730 -0.1504100114
N  -0.3298900425 -1.5774301291 0.8541501164
C  0.4525200427 -1.0815200806 -0.2764200270
C  1.1389200687 0.2950200140 -0.2868800163
N  1.0699700117 1.2327800989 0.8316701055
C  0.0128600001 1.2974500656 -0.1675100029
H  -2.0215601921 1.0069401264 -0.7222200036
H  -1.7273501158 0.8745600581 1.0242301226
H  -1.7285300493 -1.3080201149 -0.7839500308
H  -0.1300100088 -1.0447001457 1.6978200674
H  0.7631700635 -1.8199300766 -1.0062600374
H  1.9113001823 0.4817000329 -1.0234800577
H  0.7701900601 0.7640300989 1.6836901903
H  0.0029500001 2.1651501656 -0.8125400543
