17

C  1.0982100964 -0.0147500010 -1.3291600943
O  1.4265002012 1.2256700993 -0.7196000814
C  2.8381500244 1.3646401167 -0.4609900117
C  3.5655202866 2.3787102699 -1.2931001186
C  3.2417800426 2.6849904060 0.1404700130
O  4.3676004410 2.6669201851 1.0429100990
C  3.9987003803 2.2858502865 2.3631002903
H  0.0242500007 -0.0284200013 -1.5316001177
H  1.3394000530 -0.8411000967 -0.6541600823
H  1.6384202242 -0.1301100105 -2.2741701603
H  3.3929102421 0.4912600517 -0.1305100024
H  3.0098600388 2.9056901932 -2.0586202145
H  4.5996704102 2.1805901527 -1.5463401079
H  2.4612600803 3.4217302799 0.3167700171
H  4.8255200386 2.5275602341 3.0374901295
H  3.8175001144 1.2066100836 2.4006001949
H  3.1056501865 2.8278603554 2.6938202381
