20

C  1.5310901403 0.6749200821 0.7963200212
N  2.9739203453 0.7100901008 0.9809800386
C  3.6303100586 1.3662401438 -0.1471100152
C  5.1260304451 1.3858401775 0.0977900103
C  5.5669207573 2.1713500023 1.3107300997
C  5.9433507919 0.1702100188 -0.2928400338
C  6.0320005417 1.4228601456 -1.1171801090
H  1.0627101660 0.2136700153 1.6711100340
H  1.2532001734 0.0874300078 -0.0845600069
H  1.1181001663 1.6845901012 0.6976800561
H  3.3310604095 -0.2400100231 1.0625400543
H  3.2744302750 2.3965799809 -0.2568900287
H  3.4014902115 0.8319700360 -1.0781900883
H  6.6543307304 2.3008201122 1.3388701677
H  5.2733907700 1.6569501162 2.2312600613
H  5.1123003960 3.1669702530 1.3093700409
H  5.4341607094 -0.6839400530 -0.7241500616
H  6.7989807129 -0.0960100070 0.3184000254
H  6.9488205910 2.0002901554 -1.0666099787
H  5.5827708244 1.4136900902 -2.1041502953
