17

O  0.8847100735 0.0400700010 0.0960600078
C  2.3278601170 0.0317900032 0.0019800002
C  3.0342001915 1.0416001081 0.9665501118
C  4.0522804260 -0.0562800057 1.3188301325
C  3.0287103653 -1.0954300165 0.8302000761
C  2.8076901436 0.1217000037 -1.4132500887
C  2.3532001972 -0.7281300426 -2.3436503410
H  0.6870501041 -0.0276600011 1.0442301035
H  2.4127202034 1.3512101173 1.8160901070
H  3.4625601768 1.9425001144 0.5162900686
H  4.9657602310 -0.0200700015 0.7148400545
H  4.3289704323 -0.1243000105 2.3739202023
H  3.4557802677 -1.9327301979 0.2693600357
H  2.4048702717 -1.5079600811 1.6328901052
H  3.5234203339 0.8923701048 -1.6811401844
H  1.6220700741 -1.4940800667 -2.1025202274
H  2.6906204224 -0.6597500443 -3.3724102974
