19

C  3.1571104527 -1.1936100721 -0.4115700424
C  2.4756102562 0.0756600127 0.0905000046
N  1.8910801411 -0.1420600116 1.4141300917
C  3.4539303780 1.2149701118 0.1975800097
N  3.6508402824 2.1408500671 -0.9239700437
C  2.9640500546 2.6423401833 0.2632700205
C  3.6513304710 3.6308603287 1.1382000446
H  3.5927801132 -1.0292800665 -1.4029101133
H  2.4427103996 -2.0200800896 -0.4903700352
H  3.9686200619 -1.5071700811 0.2549200356
H  1.6633601189 0.3359200358 -0.5988900065
H  2.6181101799 -0.4460100234 2.0606901646
H  1.2269101143 -0.9139201045 1.3640700579
H  4.3487305641 0.9591800570 0.7544600964
H  2.9784603119 1.9691101313 -1.6736800671
H  1.9012202024 2.8338403702 0.1761200130
H  4.7310400009 3.4536201954 1.1994800568
H  3.2421803474 3.5824604034 2.1519999504
H  3.4952003956 4.6455602646 0.7572900653
