12

C  0.2408200204 -1.3986901045 0.0418500006
O  -1.1069201231 -0.8929000497 0.0150300013
C  -1.2755100727 0.4646400213 -0.0013700001
C  -0.2902100384 1.3699201345 -0.0111900009
C  1.0785300732 0.9393901229 -0.0083699999
C  1.3392201662 -0.3725400269 0.0163200013
H  0.3524600267 -2.0665102005 -0.8193700910
H  0.3397600353 -2.0081100464 0.9466800690
H  -2.3260002136 0.7246400714 -0.0075100008
H  -0.5053200722 2.4320800304 -0.0241600014
H  1.8686701059 1.6832201481 -0.0263200011
H  2.3633100986 -0.7283700109 0.0196700022
