14

C  2.5409803391 -0.4677800536 -1.6460000277
N  2.3289501667 0.0966100097 -0.3187900484
C  3.1742501259 1.2991201878 -0.1526100188
C  2.3878903389 2.5598902702 -0.5384399891
O  2.5136401653 3.0847802162 0.8128800392
C  3.1164700985 1.9510501623 1.2622901201
O  3.4600403309 1.6752001047 2.3887400627
H  1.8851401806 -1.3335500956 -1.7826001644
H  3.5746002197 -0.8037900329 -1.7774201632
H  2.2983803749 0.2558100224 -2.4309699535
H  2.5235502720 -0.6216000319 0.3827100098
H  4.1960000992 1.2289800644 -0.5391700268
H  1.3358300924 2.4352500439 -0.8153800964
H  2.8832902908 3.2105503082 -1.2656700611
