13

C  0.9445101023 -0.0424400046 0.0150000015
C  2.4369001389 -0.0033300002 0.0302600022
C  3.1390202045 1.1379899979 0.0000000000
C  4.5450205803 1.1379899979 0.0000000000
C  5.7351803780 1.1379899979 0.0000000000
C  7.2669706345 1.1376301050 0.0000100000
C  8.4677114487 1.1373200417 0.0000100000
H  0.6002300382 -1.0780299902 -0.0719100013
H  0.5446800590 0.5133100748 -0.8389200568
H  0.5356400013 0.3708700240 0.9418600202
H  2.9529302120 -0.9608100653 0.0616800040
H  2.6297802925 2.0970802307 -0.0310400017
H  9.5320711136 1.1368801594 0.0000200000
