13

C  0.8960900903 0.1064000130 -0.0082800006
C  2.3854002953 0.0643000007 0.0000800000
C  3.2770602703 1.1195800304 0.0049200007
C  4.6211504936 0.6694400311 0.0122900009
O  5.7127804756 1.4538700581 0.0182500016
C  4.7308301926 -0.6973600984 0.0129000014
S  3.1935701370 -1.4485000372 0.0042900005
H  0.5342400074 1.1399400234 -0.0003900000
H  0.4878200293 -0.3976500332 0.8739200830
H  0.4989100397 -0.3804800510 -0.9050601125
H  2.9661202431 2.1566300392 0.0031300001
H  5.4533205032 2.3905999660 0.0167699996
H  5.6340804100 -1.2904300690 0.0178700015
