17

C  1.0728501081 -0.0779200047 -0.0038300003
C  2.5536000729 0.1424700171 -0.0761200115
C  3.4519400597 -0.5763000846 -1.1244300604
C  4.4534902573 -0.2776400149 0.0276100021
C  4.5699605942 1.2373800278 0.1115400121
C  3.0785701275 1.5720701218 0.0331300013
O  3.3232603073 -0.6374000311 0.9475800991
H  0.6551700234 0.3399299979 0.9179000258
H  0.8282700181 -1.1450201273 -0.0264400002
H  0.5652200580 0.3975500464 -0.8491200805
H  3.6202301979 -0.0605500042 -2.0728802681
H  3.2330400944 -1.6337101460 -1.3006901741
H  5.3268103600 -0.9205800295 0.1337500066
H  5.0126600266 1.5661602020 1.0563501120
H  5.1353602409 1.6623002291 -0.7230200171
H  2.8356602192 2.1796700954 -0.8438000679
H  2.7300601006 2.0788202286 0.9382600784
