13

O  1.1662200689 0.0094000008 -0.6696300507
C  2.2974801064 0.1049900055 -0.2127500176
N  2.9637801647 1.2722700834 0.0525000021
C  4.2862701416 1.3729600906 0.5842700005
C  4.5014405251 2.8759200573 0.6721200943
N  3.2611300945 3.5107803345 0.1580900103
C  2.4784400463 2.5335202217 -0.1540100127
H  2.8995103836 -0.7854600549 0.0348899998
H  4.9950804710 0.8830700517 -0.0909800082
H  4.3336505890 0.8799100518 1.5604201555
H  5.3580002785 3.1900403500 0.0667300001
H  4.6772999763 3.1912102699 1.7058701515
H  1.4638301134 2.6328101158 -0.5684600472
