18

C  2.1120600700 -0.9923200607 -0.4139100313
N  1.8830801249 0.3761300445 0.0322500020
C  3.1289501190 1.1575700045 0.0721600056
C  3.4585103989 2.0707602501 -1.0728200674
C  3.0530703068 2.6547501087 0.2489300072
O  4.1179804802 3.2273402214 1.0359700918
C  4.0220804214 4.6402401924 1.1457201242
H  1.1573901176 -1.5228501558 -0.4737700522
H  2.7574300766 -1.5332701206 0.2855600119
H  2.5694503784 -1.0137100220 -1.4077401161
H  1.4610801935 0.3522600234 0.9611600637
H  3.9643404484 0.6720600724 0.5739500523
H  2.7537703514 2.1423501968 -1.8923201561
H  4.4966902733 2.1529402733 -1.3697201014
H  2.0598802567 3.0875301361 0.3272800446
H  4.9151501656 5.0093102455 1.6562000513
H  3.1419901848 4.9094700813 1.7366801500
H  3.9657802582 5.0999202728 0.1548800021
