18

C  0.7828800678 0.2001000047 -0.4693900347
C  2.2131600380 0.0041600000 -0.0345500037
C  2.4907002449 0.1260000020 1.4548901320
C  1.6088100672 -0.7691600323 2.3242502213
O  1.8740701675 -2.1431102753 2.0757701397
C  3.0972101688 -0.9014800787 -0.8702000976
N  3.2348601818 0.5467900634 -0.9464700818
H  0.6957600713 0.3106300235 -1.5570501089
H  0.3593900204 1.0974900723 -0.0077400007
H  0.1730100065 -0.6611600518 -0.1800700128
H  2.3407599926 1.1709601879 1.7535600662
H  3.5418901443 -0.1194100082 1.6570800543
H  0.5433300138 -0.5787100196 2.1710600853
H  1.8291401863 -0.5798300505 3.3798503876
H  1.5561701059 -2.3436801434 1.1786900759
H  2.6793200970 -1.3795901537 -1.7481701374
H  3.9093503952 -1.4404700994 -0.3979300261
H  4.0615200996 0.8633200526 -0.4355300367
