9

N  1.0093400478 -0.0054700007 -0.0000000000
C  2.3666400909 -0.0763400048 -0.0000000000
O  2.9790303707 -1.1327401400 -0.0000000000
C  3.0711500645 1.1763801575 -0.0000000000
C  3.6724803448 2.2157101631 -0.0000000000
C  4.4402303696 3.5409402847 -0.0000000000
N  5.0089707375 4.5520901680 -0.0000000000
H  0.5057000518 0.8693400621 0.0000000000
H  0.4916300178 -0.8735000491 -0.0000000000
