16

C  2.3125503063 0.0198000018 1.5015400648
C  2.8949601650 0.2782900333 0.1190500036
C  3.1264901161 1.7607101202 -0.1353300214
N  2.0096001625 2.4909701347 -0.4941000342
C  4.3781399727 2.2407801151 -0.0237800032
C  4.7650303841 3.6350202560 -0.3101900220
O  5.9079108238 4.0301904678 -0.1105500087
H  2.1601302624 -1.0541501045 1.6514201164
H  1.3454101086 0.5176100135 1.6301801205
H  2.9871902466 0.3774200082 2.2875602245
H  2.2190701962 -0.1220800057 -0.6463900208
H  3.8313503265 -0.2835099995 0.0178800020
H  1.1260801554 2.0483100414 -0.2455300242
H  2.0231502056 3.4720001221 -0.2292800248
H  5.2063703537 1.6039900780 0.2709100246
H  3.9821205139 4.2961902618 -0.7105600238
