18

C  1.5598601103 -0.4908000529 -0.6350800395
C  2.9129502773 -0.4922400415 0.0562200062
C  3.6684103012 0.8092600703 -0.1901800185
C  5.0082607269 0.7787400484 0.5172300339
C  5.0514006615 1.1830201149 1.9714101553
N  6.0422606468 0.3581400514 -0.1498300135
O  7.1923608780 0.3518600166 0.6460600495
H  1.0438300371 -1.4404900074 -0.4610100091
H  1.6707601547 -0.3581900299 -1.7164402008
H  0.9252600670 0.3155100048 -0.2530200183
H  3.5047202110 -1.3403600454 -0.3080700338
H  2.7708802223 -0.6483300924 1.1317901611
H  3.0937201977 1.6695400476 0.1711100042
H  3.8374702930 0.9542900920 -1.2639801502
H  4.0802602768 1.5668801069 2.2940900326
H  5.7996802330 1.9670901299 2.1155600548
H  5.3069105148 0.3142300248 2.5836901665
H  7.8688507080 0.0120500010 0.0312600024
