15

C  2.3645002842 -1.0697100163 0.6296400428
C  2.1844000816 0.1372800171 0.0808300003
C  3.2418401241 1.2026801109 0.1133900061
N  2.9674804211 2.3440899849 -0.4575300217
N  4.4587502480 0.9411000609 0.7396800518
C  5.6667304039 1.5255701542 0.1360400170
C  5.1261706352 2.0643000603 1.4170501232
H  1.5794202089 -1.8178400993 0.5870000720
H  3.2872402668 -1.3450700045 1.1303900480
H  1.2497801781 0.3783800304 -0.4124800563
H  2.0274002552 2.3381400108 -0.8585000634
H  5.5083703995 2.0802500248 -0.7786600590
H  6.5138306618 0.8568100333 0.1663700044
H  5.5953106880 1.7734200954 2.3450202942
H  4.5870103836 3.0013701916 1.4094901085
