19

C  1.0434800386 0.0033300002 -0.1289100051
C  2.5564501286 0.0029500001 0.0290700011
C  3.0565302372 1.0832400322 0.9776600599
N  4.4390201569 0.6828000546 1.2650401592
C  4.4285707474 -0.7913300395 1.3246301413
C  3.1113402843 -1.2636700869 0.6783600450
N  3.2694003582 -2.3721702099 -0.2598800361
H  0.7180900574 -0.7985600233 -0.7985000610
H  0.7005000114 0.9550800323 -0.5488200188
H  0.5408200622 -0.1372500062 0.8348400593
H  3.0137202740 0.1564300060 -0.9592000842
H  2.4776000977 1.1096401215 1.9068300724
H  3.0186302662 2.0795900822 0.5246000290
H  5.0242605209 0.9598401189 0.4750500321
H  5.3141102791 -1.1859000921 0.8115200400
H  4.4810800552 -1.1246700287 2.3673300743
H  2.4380502701 -1.5925101042 1.4796900749
H  3.9142403603 -2.1027200222 -1.0027101040
H  2.3795702457 -2.5627300739 -0.7173200846
