15

C  0.9281800985 -0.1835600138 0.0126500009
C  2.4055900574 -0.4098900259 0.0174500011
C  2.9846401215 -1.6083101034 0.1814700067
C  3.2908504009 0.7694400549 -0.1714600027
N  2.8390903473 1.9712001085 -0.3380900323
N  3.8847701550 2.8775901794 -0.4900500476
C  3.4261102676 4.0721602440 -0.6548100710
H  0.6413100362 0.5035600066 0.8153600693
H  0.3746500313 -1.1167601347 0.1622200161
H  0.6071400642 0.2421100140 -0.9436500669
H  2.3860301971 -2.5032300949 0.3235200047
H  4.0627102852 -1.7381200790 0.1799300164
H  4.3778901100 0.5668300986 -0.1626000255
H  4.1234002113 4.9127602577 -0.7904300690
H  2.3481101990 4.3077001572 -0.6682300568
