16

N  0.9325301051 -0.0225600023 -0.2180400193
C  2.3805100918 -0.0793900043 -0.5343000293
C  2.5949702263 -1.1790400743 -1.5956901312
O  1.7100801468 -0.9774400592 -2.6978204250
C  2.8596601486 1.3017899990 -1.0258899927
C  4.3262104988 1.3654801846 -1.1534900665
C  5.5207304955 1.4206300974 -1.2685500383
H  0.7768000364 0.6791400313 0.5074200630
H  0.6481601000 -0.9126100540 0.1952600181
H  2.9280202389 -0.3532100320 0.3759700358
H  2.3725302219 -2.1644501686 -1.1714000702
H  3.6219704151 -1.2001801729 -1.9711101055
H  0.8939900398 -0.6151700616 -2.2948400974
H  2.5467703342 2.0727202892 -0.3097500205
H  2.3918602467 1.5569001436 -1.9844702482
H  6.5789103508 1.4714701176 -1.3831101656
