14

C  1.0000001192 0.0000000000 0.0000000000
C  2.1901600361 0.0000000000 0.0000000000
C  3.5961604118 0.0000000000 0.0000000000
C  4.3533501625 -1.0962400436 -0.0652400032
C  5.7918806076 -0.7330300212 -0.0575700030
N  5.8393502235 0.7390300035 -0.1737600118
C  4.4553103447 1.2147101164 0.0582800023
H  -0.0651100054 -0.0026200004 0.0011700001
H  3.9893603325 -2.1120700836 -0.1063400134
H  6.2656502724 -1.0506100655 0.8756300807
H  6.3217206001 -1.1959900856 -0.8955700397
H  6.0814404488 0.9638900757 -1.1389200687
H  4.1783204079 1.9478801489 -0.7069200277
H  4.3919901848 1.6919500828 1.0419200659
