11

C  0.2409700155 -1.3578501940 0.0602800064
O  -0.9633000493 -0.8216300607 -0.5056200624
N  -1.3227100372 0.4574100375 -0.0058200005
C  -0.3197700381 1.2682201862 0.1115600094
C  1.0998001099 0.9338000417 -0.1052400023
C  1.3619000912 -0.3762100339 -0.0691200048
H  0.4805500209 -2.2651901245 -0.5026300550
H  0.0700400099 -1.6357600689 1.1055800915
H  -0.5129400492 2.3035001755 0.4366500378
H  1.8398500681 1.7148301601 -0.1906200200
H  2.3770201206 -0.7480900288 -0.1410800219
