17

C  1.0343301296 -0.0412600040 -0.0175200030
C  2.5254702568 -0.0429100022 0.0005700001
C  3.3466103077 -0.7379400730 -1.0623400211
C  2.7280702591 -1.4672100544 -2.2063503265
C  3.3009800911 0.7751900554 -1.0115201473
C  4.5108604431 1.5241301060 -0.6007100344
O  5.3362402916 1.8853801489 -1.4288201332
H  0.6551200747 0.7266600728 0.6642300487
H  0.6525200605 -1.0104900599 0.3177000284
H  0.6246300340 0.1653300077 -1.0108000040
H  2.8994700909 -0.1042700112 1.0178900957
H  4.2574100494 -1.2320301533 -0.7372100949
H  1.8956501484 -0.9181300402 -2.6566801071
H  2.3577301502 -2.4422502518 -1.8749700785
H  3.4757401943 -1.6363301277 -2.9878802299
H  2.7346103191 1.2775100470 -1.7899800539
H  4.6205606461 1.7458901405 0.4736300409
