12

O  2.9538903236 -0.8549500704 -0.8664400578
C  2.1825101376 0.0303700026 -0.0505900048
C  2.8019404411 1.3868300915 0.0833300054
N  2.0873601437 2.3545801640 0.6642700434
S  2.9841001034 3.7483303547 0.6948500872
C  4.3647303581 3.0893402100 -0.0656500012
C  4.1170005798 1.7635700703 -0.3478500247
H  2.4463500977 -1.6821100712 -0.9207700491
H  2.0814499855 -0.4271200299 0.9397300482
H  1.1869300604 0.1177200079 -0.5000000596
H  5.2494201660 3.6771502495 -0.2611400187
H  4.8196206093 1.0980700254 -0.8324400783
