21

C  2.5133502483 -0.7944900393 -1.1909300089
C  2.1521201134 0.0605900027 0.0188999996
C  2.7342903614 1.4939701557 -0.0056800004
C  2.1628601551 2.2821702957 -1.1964900494
C  2.3473100662 2.2368502617 1.2830100060
O  4.1566705704 1.4996401072 -0.2049200088
C  4.9542503357 0.9233800769 0.8185600638
H  2.1346900463 -1.8122701645 -1.0527800322
H  3.5959801674 -0.8565500975 -1.3321501017
H  2.0653002262 -0.3998600245 -2.1069600582
H  2.5035200119 -0.4659400284 0.9145700932
H  1.0585800409 0.1065900102 0.1031100079
H  2.5058701038 1.8710901737 -2.1523203850
H  2.5134103298 3.3216001987 -1.1756801605
H  1.0674601793 2.2901303768 -1.1909201145
H  2.6537501812 1.6806302071 2.1748502254
H  1.2642800808 2.3881301880 1.3471400738
H  2.8393101692 3.2145502567 1.3334900141
H  5.9979205132 0.9670301080 0.4937200248
H  4.7002501488 -0.1264400184 0.9849501252
H  4.8732104301 1.4892001152 1.7498500347
