19

C  1.7144200802 -0.2257600129 1.2323200703
C  2.1652901173 0.1615400016 -0.1668100059
C  3.2784602642 1.1626300812 -0.1253100038
C  3.3824601173 2.2329502106 -1.1783001423
C  2.9980502129 2.6007502079 0.2278300077
O  4.0264406204 3.2310900688 1.0149000883
C  3.7591803074 4.6006608009 1.2768200636
H  0.9396100640 -0.9973701239 1.1844400167
H  1.3013300896 0.6384600997 1.7644600868
H  2.5508801937 -0.6133800149 1.8242101669
H  1.3074300289 0.5508400202 -0.7263200283
H  2.5139701366 -0.7321200371 -0.6955000162
H  4.2023801804 0.7287800908 0.2435900122
H  2.6161901951 2.2926602364 -1.9418201447
H  4.3726606369 2.5098199844 -1.5226101875
H  1.9627702236 2.8699202538 0.4173600376
H  4.6136803627 5.0247602463 1.8113701344
H  2.8686201572 4.6956105232 1.9054400921
H  3.6200504303 5.1495304108 0.3407700360
