15

C  1.1130801439 1.2250701189 -0.1243000105
N  -0.2149000168 1.3553800583 0.4444900453
C  -1.2490501404 0.7211200595 -0.1880800128
N  -1.4483801126 -0.5163300633 -0.4214500487
C  -0.5623100400 -1.5095700026 0.1772200167
C  0.9116100669 -1.3191200495 0.0021900004
C  1.6103202105 -0.1809900105 -0.1309200078
H  1.7995401621 1.8335300684 0.4759700298
H  1.1327600479 1.6287001371 -1.1435900927
H  -0.4150800407 2.3361003399 0.6136900187
H  -2.0027601719 1.4420900345 -0.5488200188
H  -0.8140000701 -2.4652001858 -0.3006400168
H  -0.7981800437 -1.6373802423 1.2386500835
H  1.4759100676 -2.2506902218 0.0007800001
H  2.6886901855 -0.2725900114 -0.2503100038
