21

C  1.5190000534 -0.4855700433 -0.8043800592
C  2.7937800884 -0.5319300294 0.0313400030
C  3.6185104847 0.7581200004 -0.0871600062
O  2.8008201122 1.8628501892 0.3079000115
C  4.9049801826 0.7521100640 0.7704600692
C  5.8434305191 -0.4034600258 0.4188900292
C  5.6599307060 2.0804100037 0.6268100739
H  0.9821300507 -1.4360201359 -0.7233700156
H  1.7510300875 -0.3159500062 -1.8603402376
H  0.8466700315 0.3082500398 -0.4659900367
H  3.3826801777 -1.3949301243 -0.2941400409
H  2.5113303661 -0.6972600222 1.0780700445
H  3.8829801083 0.9188200235 -1.1393101215
H  2.5564501286 1.7314301729 1.2401500940
H  4.6231904030 0.6590999961 1.8278001547
H  6.0839905739 -0.4078600407 -0.6496700048
H  5.3995103836 -1.3704401255 0.6752300262
H  6.7836403847 -0.3267800212 0.9762101173
H  5.9539403915 2.2568800449 -0.4140100181
H  6.5684008598 2.0799701214 1.2389200926
H  5.0464801788 2.9255802631 0.9548900723
