17

C  0.6533600688 -0.0956100076 0.1636000127
C  2.0522401333 0.3839200437 -0.0933600068
C  0.8919900656 1.3473501205 -0.2204000205
C  0.7156000733 2.4669401646 0.7859100103
C  0.3113200068 3.6517903805 -0.0450300053
C  0.1840000004 3.3286004066 -1.3401001692
C  0.4832300246 1.8755601645 -1.5809000731
H  0.3759500384 -0.3194900453 1.1874901056
H  0.2037900090 -0.7580000162 -0.5675800443
H  2.5463302135 0.0472000018 -0.9979000688
H  2.7185201645 0.4852100611 0.7561600208
H  1.6461900473 2.6787199974 1.3219001293
H  -0.0722000003 2.2302701473 1.5087500811
H  0.1481800079 4.6386904716 0.3647900224
H  -0.0964700058 4.0167803764 -2.1254000664
H  -0.4120500386 1.3656600714 -1.9516502619
H  1.2891901731 1.7699501514 -2.3139002323
