17

C  0.9519900680 -0.0441800021 0.0555200018
C  2.4822402000 -0.0395300053 -0.0478500053
C  2.9096002579 -0.8390400410 -1.2834001780
C  3.0344300270 1.4024801254 -0.0748600066
O  2.5381901264 2.1284401417 1.0478000641
C  4.5058903694 1.4372001886 -0.0291700009
C  5.7063403130 1.4742200375 0.0134600010
H  0.6142300367 0.4350300431 0.9799700975
H  0.5660900474 -1.0693200827 0.0598000064
H  0.4972200394 0.4849900603 -0.7887600660
H  2.8660802841 -0.5533699989 0.8441600204
H  2.5679001808 -0.3555100262 -2.2049601078
H  2.4873101711 -1.8494901657 -1.2564600706
H  3.9977402687 -0.9435000420 -1.3369700909
H  2.6802401543 1.9195801020 -0.9737600684
H  2.9751904011 1.7609300613 1.8347301483
H  6.7697005272 1.5124000311 0.0491600037
