17

C  0.9912100434 -0.0780400038 0.0955600068
C  2.5274302959 -0.0110700009 0.0699200034
C  2.9844703674 -0.8297800422 -1.0897500515
N  3.3463101387 -1.4909501076 -1.9741901159
N  3.0352201462 1.3918601274 0.0259300023
C  2.5401802063 2.2005102634 1.1439400911
C  4.5052700043 1.4241100550 0.0314900018
H  0.5812399983 0.3241800368 1.0272800922
H  0.6430100799 -1.1154000759 0.0195800029
H  0.5529800653 0.4758400321 -0.7430900335
H  2.8957402706 -0.4948000312 0.9851200581
H  1.4590400457 2.3551502228 1.0754301548
H  2.9802300930 3.2045602798 1.1209300756
H  2.7730801105 1.7483201027 2.1146001816
H  4.9217004776 0.9344600439 -0.8547500968
H  4.9228205681 0.9450400472 0.9245800972
H  4.8670501709 2.4584400654 -0.0030000003
