16

C  0.8801700473 -0.0216100011 0.1186300069
C  2.3934700489 -0.0060900003 -0.0377300009
C  2.8286702633 0.0195200015 -1.4996200800
C  3.1278600693 1.0173801184 0.8490700126
O  3.9989902973 -0.0143100014 1.3786301613
C  3.1459803581 -1.0439200401 0.8180700541
H  0.5833500028 -0.0408800058 1.1725200415
H  0.4472300410 -0.9039600492 -0.3641000092
H  0.4321400225 0.8675701022 -0.3361600339
H  3.9195802212 0.0311200023 -1.5966302156
H  2.4404301643 0.9094700813 -2.0056002140
H  2.4569702148 -0.8621100783 -2.0319502354
H  2.5395102501 1.4778200388 1.6505200863
H  3.6927101612 1.7939101458 0.3247400522
H  3.7238402367 -1.7939701080 0.2699200213
H  2.5656802654 -1.5385000706 1.6043601036
