15

C  1.1022001505 1.8085101843 -1.3042100668
N  1.5589801073 1.9906401634 0.0738500059
N  2.9043402672 2.4440302849 0.1057800129
C  3.1587603092 3.7912001610 0.2732000351
C  2.2350301743 4.7531905174 0.3897600174
C  3.9169104099 1.4809801579 0.0756300092
O  3.7510104179 0.2659700215 0.0066900006
H  0.0619100034 1.4683600664 -1.2979800701
H  1.6988401413 1.0579200983 -1.8333801031
H  1.1394101381 2.7488601208 -1.8640301228
H  1.5555901527 1.0693700314 0.5252700448
H  4.2094802856 4.0683503151 0.3164100051
H  1.1719100475 4.5376105309 0.3646300435
H  2.5284302235 5.7886204720 0.5233800411
H  4.9253606796 1.9239600897 0.1305000037
