18

C  4.5838403702 -1.1025000811 0.1402500123
O  3.3370203972 -0.4197100401 0.2015800178
C  3.3734402657 0.9461600780 0.2203700095
C  4.4365205765 1.7631801367 0.1972200125
C  4.3265604973 3.2638101578 0.2203000188
C  4.9309701920 3.8859102726 -1.0435800552
N  4.8618206978 5.3448104858 -0.9996400476
H  4.3793401718 -2.1775200367 0.1228900105
H  5.1917705536 -0.8885100484 1.0256400108
H  5.1253604889 -0.8476300240 -0.7763800621
H  2.3543901443 1.3194100857 0.2585200369
H  5.4467105865 1.3668500185 0.1708800048
H  4.8541502953 3.6344301701 1.1078600883
H  3.2785203457 3.5736801624 0.3210800290
H  4.4007005692 3.5272603035 -1.9334802628
H  5.9809703827 3.5877201557 -1.1445701122
H  3.8862802982 5.6395306587 -0.9693200588
H  5.2452306747 5.7245702744 -1.8643901348
