17

C  0.2738099992 -0.0505700037 1.0586900711
C  1.6742601395 -0.5863100290 0.9083001018
O  1.9382401705 -1.7551101446 1.1857100725
C  2.7151002884 0.3968300521 0.4074300528
C  4.0997004509 -0.2378700078 0.2977600098
C  5.1141505241 0.7523300052 -0.2017300129
C  6.1836805344 1.1460101604 0.5004900694
H  0.2632100284 0.7392700315 1.8134900331
H  -0.3965000212 -0.8542200327 1.3756201267
H  -0.0747500062 0.3392500281 0.0990200043
H  2.7414500713 1.2432000637 1.1032401323
H  2.3879501820 0.7626700401 -0.5726900101
H  4.0679502487 -1.0865601301 -0.3965000212
H  4.4002003670 -0.6440700293 1.2719200850
H  4.9650902748 1.1485300064 -1.2041600943
H  6.3827505112 0.7674500346 1.4979400635
H  6.8906106949 1.8564600945 0.0837699994
