15

C  1.0010000467 -0.0542600006 0.0031000003
C  2.5200002193 0.0000000000 0.0000000000
C  3.0020201206 1.3611700535 0.0000000000
C  3.3993003368 2.4830701351 0.0000000000
C  3.9606201649 3.8151702881 0.0008300001
C  5.4586305618 3.9123303890 -0.0060600005
O  3.2200102806 4.7912006378 0.0039500003
H  0.6576900482 -1.0936901569 0.0024500003
H  0.5849500299 0.4417700469 -0.8807401061
H  0.5886900425 0.4394200444 0.8899900317
H  2.8956601620 -0.5327100158 -0.8808400631
H  2.8993203640 -0.5340900421 0.8784200549
H  5.9199800491 2.9206001759 0.0131000010
H  5.7884206772 4.4656405449 0.8770500422
H  5.7825603485 4.4297099113 -0.9127800465
