17

N  1.6291002035 -0.8711900711 -0.5340900421
C  2.9849102497 -0.4770200253 -0.1168500111
C  3.1915602684 1.0564800501 -0.2445900291
N  2.0295000076 1.7650002241 0.3392200172
C  4.5036206245 1.5229201317 0.4107600152
C  5.6913003922 0.9725000858 -0.2654900253
C  6.6625304222 0.5283500552 -0.8152500391
H  1.5532600880 -1.8873401880 -0.4873700440
H  1.5046701431 -0.6271200776 -1.5175501108
H  3.7163503170 -1.0135700703 -0.7303600311
H  3.1245303154 -0.7904800773 0.9241200686
H  3.2133002281 1.3110001087 -1.3124899864
H  2.0051400661 1.5771400928 1.3420600891
H  1.2018800974 1.2627600431 -0.0061900006
H  4.5197801590 1.2391000986 1.4703201056
H  4.5595402718 2.6183800697 0.3775100410
H  7.5272002220 0.1407100111 -1.3029501438
