13

C  1.1537600756 -0.0318700038 0.2844400108
C  2.4167401791 0.0465900041 -0.1330000013
N  3.1369202137 1.1566900015 -0.4045200348
C  4.3733901978 0.8414101005 -0.8357200623
N  5.3001303673 1.6536900997 -1.2049200535
C  4.4711103439 -0.6706500649 -0.8115300536
O  3.1620602608 -1.1116300821 -0.3508600295
H  0.6930000782 -0.9977900386 0.4606300294
H  0.5561900139 0.8548900485 0.4567700326
H  2.7798602581 2.0949902534 -0.3396100104
H  6.1384205818 1.1356000900 -1.4885200262
H  4.6577506065 -1.0665801764 -1.8128402233
H  5.2364106178 -1.0009200573 -0.1045400053
