14

C  1.1018000841 0.0014800002 0.1421800107
C  2.5744700432 0.0174599998 -0.1213800088
N  3.1875402927 1.1175301075 -0.4326700270
O  4.5775103569 1.0145900249 -0.6672000289
C  5.1912202835 0.0381500050 0.1681700200
C  4.5466904640 -1.2800000906 -0.1760500073
O  3.1348202229 -1.2066501379 0.0531200059
H  0.7178300023 -1.0217100382 0.1391900033
H  0.5848300457 0.5699000359 -0.6352200508
H  0.9055500627 0.4559900463 1.1162400246
H  6.2637205124 0.0210400019 -0.0429500006
H  5.0400500298 0.3148500323 1.2175700665
H  4.9514703751 -2.0836002827 0.4462600350
H  4.6981601715 -1.5431301594 -1.2286201715
