15

C  0.9859200716 0.0604700036 0.0046600001
C  2.4668900967 -0.0300800018 0.0027800002
C  3.2384102345 -1.1369200945 -0.0000800000
C  4.6145105362 -0.6801600456 -0.0008200001
C  5.6969704628 -1.4603101015 -0.0036900004
C  4.6118006706 0.7660000920 0.0013100002
C  3.3248500824 1.1488500834 0.0037200002
H  0.5256600380 -0.9330200553 0.0009800000
H  0.6314000487 0.5977600217 -0.8809300661
H  0.6332500577 0.5904200077 0.8953900337
H  2.9104802608 -2.1636202335 -0.0013700001
H  5.6127204895 -2.5418100357 -0.0053500002
H  6.6964406967 -1.0386201143 -0.0040500006
H  5.4799604416 1.4039301872 0.0014000002
H  2.9627501965 2.1659502983 0.0057100002
