14

O  0.9069800973 0.4553500414 -0.4481300116
N  2.2593801022 0.4583000541 -0.8116200566
C  2.9451701641 0.9960400462 0.1498900056
C  4.4594302177 1.1324801445 0.0431700014
O  4.9841203690 0.4222500324 -1.0646400452
C  4.8077106476 2.5777702332 -0.1326700151
C  5.5322103500 3.2985501289 0.7349200249
H  0.4836900532 0.0051400005 -1.2047901154
H  2.4708600044 1.3785001040 1.0720800161
H  4.8966207504 0.7191300392 0.9580600858
H  4.2142601013 0.2031700164 -1.6251201630
H  4.4523901939 3.0547802448 -1.0436601639
H  5.9310402870 2.8651401997 1.6472201347
H  5.7608208656 4.3398604393 0.5345100164
