17

C  1.2202401161 0.1274100095 -0.2215400189
N  2.6623902321 0.0550600030 0.0644700006
C  3.1553204060 -1.1980999708 0.3910200298
N  4.3481006622 -1.6709301472 0.2828400433
C  3.4481801987 1.2194100618 -0.0461200066
C  4.6237201691 1.3755100965 0.8980200291
C  3.1680202484 2.2440800667 -0.8724300265
H  0.7984000444 1.0887200832 0.0934100077
H  0.6591600776 -0.6481400728 0.3117400110
H  1.0448900461 -0.0030000003 -1.2947500944
H  2.3733003139 -1.8814901114 0.7649000287
H  4.9425301552 -0.9612600803 -0.1485500038
H  4.3882703781 0.9613800645 1.8841201067
H  4.8781800270 2.4300901890 1.0537000895
H  5.5166501999 0.8814400434 0.5065200329
H  2.3351202011 2.2177703381 -1.5656900406
H  3.7861201763 3.1368801594 -0.8975501060
