16

C  0.9718800783 0.0328200012 -0.2433500141
C  2.4481503963 -0.0346800014 -0.0236200020
C  3.1423003674 -1.1781600714 0.0897900090
C  3.2115902901 1.2510501146 0.0344200023
C  2.6965203285 2.3251199722 0.9691300392
N  4.2699103355 1.4036900997 -0.7116100788
O  4.8434805870 2.6686902046 -0.5405000448
H  0.7375800610 0.7140100598 -1.0684100389
H  0.4579100311 0.3857500553 0.6560200453
H  0.5571700931 -0.9480800629 -0.4998700321
H  2.6524500847 -2.1443903446 0.0372700021
H  4.2196202278 -1.1758000851 0.2269600183
H  1.8990100622 1.9482201338 1.6138300896
H  2.3116402626 3.1627104282 0.3807900250
H  3.5078403950 2.6757903099 1.6138800383
H  5.6036906242 2.6343903542 -1.1503400803
