15

C  0.8716700673 -1.1058701277 0.9323900342
C  1.1240100861 -0.3609600365 -0.3560800254
C  0.9016900659 1.1065900326 -0.5191500187
N  -0.3213600218 1.5378301144 0.1586900204
N  -1.4841201305 0.8343000412 0.0465400033
C  -1.4087201357 -0.4507900476 -0.1300100088
C  -0.1226200089 -1.1860800982 -0.2033100128
H  1.4754000902 -1.9831701517 1.1364099979
H  0.6012100577 -0.5465300083 1.8206701279
H  1.9099701643 -0.7269400954 -1.0047000647
H  1.7584700584 1.6668701172 -0.1311800033
H  0.8168400526 1.3424600363 -1.5859001875
H  -0.1250900030 1.7329201698 1.1413199902
H  -2.3365201950 -1.0368300676 -0.2268800139
H  -0.1677000225 -2.1163401604 -0.7589200735
