16

C  0.8696100712 0.2643200159 0.3555200100
C  2.3608303070 0.0464800037 0.2950100005
O  2.8068702221 -1.1047201157 0.4144000411
C  3.2774603367 1.2820200920 0.0593200028
C  2.7042100430 2.7034702301 -0.1430100054
C  3.8883101940 3.1512904167 0.7323300838
N  3.8763902187 1.7985101938 1.3316601515
H  0.6254400015 0.8994200230 1.2102100849
H  0.3609000444 -0.6962500811 0.4777800143
H  0.5272600055 0.7234900594 -0.5748800635
H  4.0450501442 1.0477000475 -0.6940800548
H  1.7256702185 2.8937902451 0.3113700151
H  2.7021300793 3.0795702934 -1.1691900492
H  4.8029804230 3.3796801567 0.1726600081
H  3.6811902523 3.9662401676 1.4305200577
H  4.7908902168 1.4042800665 1.5514001846
