18

C  0.9604100585 0.0081500011 -0.0244800020
C  2.4619600773 -0.0017400002 -0.0240500011
C  3.1711802483 1.1459200382 0.0814700052
C  4.6609802246 1.2005100250 0.0959800109
N  5.3342204094 -0.0073000006 -0.3779400289
C  4.6929206848 -1.2478901148 0.0470200032
C  3.1637701988 -1.3209100962 -0.1112400144
H  0.5626200438 -1.0112200975 0.0189400017
H  0.5777500272 0.4751900434 -0.9366101027
H  0.5684100389 0.5484100580 0.8432000279
H  2.6517903805 2.0977401733 0.1684300154
H  4.9797906876 2.0292301178 -0.5500600934
H  4.9973406792 1.4530501366 1.1071500778
H  5.3844103813 0.0253700018 -1.3906401396
H  4.9588303566 -1.4559901953 1.0885500908
H  5.1285004616 -2.0650601387 -0.5372600555
H  2.7682502270 -1.9844801426 0.6673000455
H  2.9144701958 -1.7703301907 -1.0798401833
