13

O  1.0512200594 -0.0637900084 -0.2289800197
C  2.4808104038 -0.0005700001 -0.0379800051
C  3.2933602333 -0.7005000114 -1.0957800150
O  2.5232200623 -1.3294600248 -2.1396801472
C  3.2486002445 0.8063100576 -1.0542700291
C  4.4128203392 1.5230101347 -0.6206099987
C  5.3886804581 2.1253302097 -0.2627500296
H  0.6038200259 0.6081300378 0.3162800372
H  2.8558502197 -0.0517500043 0.9793700576
H  4.2065901756 -1.1962200403 -0.7846500874
H  1.5723301172 -1.2458100319 -1.9283201694
H  2.6737401485 1.2914000750 -1.8371701241
H  6.2565002441 2.6585502625 0.0484100021
