17

O  1.0229500532 0.0232400019 -0.0701900050
C  2.4524703026 -0.0618600063 0.0049800002
C  3.1158401966 -0.7270500064 -1.1577700377
C  3.2126901150 0.7722700834 -1.0007101297
C  4.5075602531 1.4926501513 -0.6283400655
C  5.8760004044 0.9937101007 -1.0280600786
C  5.3238902092 2.2330200672 -1.6623802185
H  0.6943500042 0.7943800688 0.4232400358
H  2.8983101845 -0.2161800116 0.9827400446
H  2.4861102104 -1.1129100323 -1.9501302242
H  3.9900102615 -1.3319500685 -0.9536700845
H  2.5857801437 1.3460299969 -1.6845802069
H  4.4589304924 1.9861000776 0.3441700339
H  5.9487304688 0.1057800129 -1.6445600986
H  6.6827101707 1.1025900841 -0.3126500249
H  5.7551102638 3.1863603592 -1.3800401688
H  5.0139303207 2.1751599312 -2.6994302273
