18

C  1.3362101316 3.4913201332 1.2823700905
C  2.5105001926 2.5693500042 1.0219000578
O  3.6204900742 3.3580703735 0.5954500437
N  4.7002205849 2.5033900738 0.3400100172
C  5.7834105492 3.1724503040 0.0848400071
C  5.8760404587 4.6784300804 0.0660900101
C  7.0311803818 2.4007103443 -0.2613800168
H  0.4711600244 2.9285902977 1.6428900957
H  1.0553201437 4.0230503082 0.3677700162
H  1.5995601416 4.2512207031 2.0246801376
H  2.2533302307 1.8420701027 0.2432700098
H  2.7775802612 2.0341901779 1.9404702187
H  5.2637805939 5.1224403381 0.8544100523
H  5.5425105095 5.0442700386 -0.9084200859
H  6.9122304916 4.9890704155 0.2256500125
H  6.8338103294 1.3253101110 -0.2659800053
H  7.8067803383 2.6188602448 0.4779600501
H  7.3811903000 2.7050201893 -1.2514400482
