17

C  0.9719300270 -0.0129600009 0.0109600006
C  2.4878101349 0.0038800002 0.0273800027
C  3.1498701572 1.0527100563 0.9578200579
C  4.2418403625 0.0014500001 1.2441101074
C  3.1913201809 -1.0855700970 0.8957901001
C  3.6919200420 -2.2367703915 0.1767100096
C  4.1062903404 -3.1954302788 -0.4165200293
H  0.6030500531 -0.8733000755 -0.5564500690
H  0.5824100375 0.8940600753 -0.4622100592
H  0.5569700599 -0.0717400014 1.0224701166
H  2.8829703331 0.0638900027 -0.9979000688
H  2.5564901829 1.3184801340 1.8405901194
H  3.4925301075 1.9696302414 0.4713600278
H  5.0941700935 0.0604800060 0.5560100675
H  4.6185703278 -0.0145100011 2.2705302238
H  2.5988802910 -1.3735001087 1.7759600878
H  4.4738702774 -4.0451502800 -0.9428900480
