17

C  2.6733400822 -0.8732801080 -0.8748200536
N  2.4414601326 0.0270100012 0.2465500236
C  2.9607002735 1.3856801987 0.0000000000
C  2.4046902657 2.3339903355 1.1075900793
N  2.7670803070 3.7508301735 0.9418300986
C  4.4047007561 1.3856801987 0.0000000000
C  5.5948605537 1.3856801987 0.0000000000
H  2.1990101337 -1.8375401497 -0.6643300056
H  3.7378201485 -1.0616199970 -1.0413900614
H  2.2283201218 -0.4855100513 -1.7972601652
H  2.8876101971 -0.3488900065 1.0818401575
H  2.5789401531 1.7469501495 -0.9635300636
H  2.7555100918 2.0045800209 2.0941202641
H  1.3095000982 2.2713401318 1.1176700592
H  3.7832803726 3.8356804848 0.9539200664
H  2.4281902313 4.2734503746 1.7479101419
H  6.6605200768 1.3839701414 -0.0060000005
