16

C  -1.0253400803 -0.0000200000 -1.1932101250
C  -0.5286600590 1.0148000717 -0.0623400025
C  -1.3520500660 -0.0000800000 0.8625200391
C  -0.5292700529 -1.0146400928 -0.0624000020
C  0.9747200608 -0.7915600538 0.2310100198
N  1.8571201563 -0.0004200000 -0.5869300365
C  0.9738800526 0.7915600538 0.2311200202
H  -2.0968801975 0.0001000000 -1.4241501093
H  -0.4699900150 0.0000700000 -2.1341400146
H  -0.8768000603 2.0466301441 -0.1154400110
H  -1.0903700590 -0.0000200000 1.9245401621
H  -2.4426100254 0.0000600000 0.7598000765
H  -0.8770400882 -2.0466101170 -0.1155700088
H  1.3181301355 -1.2811400890 1.1323001385
H  1.5828101635 -0.0000300000 -1.5682101250
H  1.3184601068 1.2808101177 1.1325200796
