10

O  1.0014801025 0.0005100000 -0.0123300012
C  2.4200003147 0.0000000000 0.0000000000
C  2.9020202160 1.3611700535 0.0000000000
C  3.2993004322 2.4830701351 0.0000000000
C  3.8050503731 3.8319203854 -0.0000400000
O  3.0502102375 4.7932605743 0.0030200002
H  0.7187800407 -0.9283701181 -0.0100100003
H  2.7728900909 -0.5416400433 -0.8829200268
H  2.7575201988 -0.5360900760 0.8922801018
H  4.9015507698 3.9279901981 -0.0028200003
