13

N  1.0348100662 -0.0014900002 0.2596200109
C  2.4700002670 0.0000000000 0.0000000000
C  2.7273700237 -0.7445800304 -1.2839300632
C  3.3382701874 -0.3134800494 -2.3988301754
C  2.9520201683 1.3611700535 0.0000000000
C  3.3493003845 2.4830701351 0.0000000000
H  0.8600000739 0.5381000638 1.1047500372
H  0.7368100882 -0.9515300989 0.4629500508
H  2.9651503563 -0.5510200858 0.8089000583
H  2.3722503185 -1.7740201950 -1.2886501551
H  3.7244303226 0.6959500313 -2.4957602024
H  3.4524302483 -0.9704601169 -3.2554001808
H  3.6983304024 3.4894802570 -0.0069200005
