16

N  2.1896302700 0.9805900455 -1.6502301693
C  2.3297703266 0.0064200005 -0.7050700784
O  1.8638401031 -1.1132000685 -0.8784700632
C  3.1149601936 0.4073400199 0.5271600485
C  4.5596904755 0.0178400017 0.4270100296
C  5.5974802971 1.0070600510 -0.0389100015
C  5.5597505569 0.5818600655 1.4031001329
H  2.7538101673 1.8183602095 -1.6389901638
H  1.7441902161 0.7123000622 -2.5182201862
H  2.6567502022 -0.0931700096 1.3879801035
H  3.0023803711 1.4850500822 0.6965900064
H  4.6807599068 -1.0243700743 0.1469700187
H  5.2953004837 2.0215501785 -0.2709900141
H  6.4095506668 0.6360400319 -0.6548900604
H  6.3446402550 -0.0765100047 1.7596101761
H  5.2217607498 1.3029102087 2.1388301849
