16

C  1.0000001192 0.0000000000 0.0000000000
C  2.4440002441 0.0000000000 0.0000000000
C  3.6341602802 0.0000000000 0.0000000000
C  5.0781602859 0.0000000000 0.0000000000
O  5.5583004951 -0.6414500475 -1.1837100983
C  5.6493206024 1.4358100891 0.0464900024
N  7.1166405678 1.4294301271 -0.1098100096
H  0.6060200334 1.0208801031 0.0116700009
H  0.6059300303 -0.5205200315 0.8782500625
H  0.6059600711 -0.5002900362 -0.8899500370
H  5.4597201347 -0.5720100403 0.8533700705
H  6.4404106140 -0.2437400073 -1.3298001289
H  5.3752202988 1.9333702326 0.9834300280
H  5.2353501320 2.0266301632 -0.7795800567
H  7.5395007133 1.0055600405 0.7174800634
H  7.4456906319 2.3959701061 -0.1215500087
