13

C  1.0540101528 -0.0483300015 -0.0046400004
C  2.5222001076 0.0972500071 -0.0064900005
N  3.2460503578 1.1991401911 -0.0089100003
C  4.5374703407 0.7314200401 -0.0096700005
C  4.5401802063 -0.6430400610 -0.0077300007
N  5.4854707718 -1.5844200850 -0.0070300004
O  3.2471702099 -1.0639801025 -0.0059500006
H  0.5687100887 0.9321500659 0.0078200009
H  0.7251200676 -0.6046100855 0.8780500293
H  0.7213000059 -0.5841700435 -0.8984800577
H  5.3846006393 1.4010300636 -0.0114300009
H  6.4760107994 -1.3731700182 -0.0138000008
H  5.2341103554 -2.5664503574 -0.0101600010
