17

C  2.0487601757 -0.8773000240 -0.5753200054
C  2.2027101517 0.4140800536 0.2079800218
C  3.4392101765 1.1697601080 -0.2574000061
N  3.3409502506 1.9792101383 -1.2685500383
N  4.6044902802 0.8986500502 0.4477700293
C  5.8602404594 0.8903800845 -0.3185099959
C  5.5546503067 2.0092301369 0.6172600985
H  1.1647300720 -1.4252300262 -0.2362900227
H  2.9235901833 -1.5220600367 -0.4458900392
H  1.9389301538 -0.6768900752 -1.6460300684
H  2.2941603661 0.1954500228 1.2772901058
H  1.3183400631 1.0462200642 0.0727100000
H  2.3781702518 1.9940102100 -1.6201801300
H  5.7586302757 1.0512601137 -1.3833200932
H  6.5399308205 0.1138200089 -0.0001900000
H  6.0202202797 2.0165400505 1.5914500952
H  5.2363505363 2.9606902599 0.2148000151
