17

C  2.8245201111 -0.8441400528 -1.1535601616
C  2.4719700813 -0.0029800003 0.0671399981
C  3.0273902416 1.4328200817 0.0000000000
C  2.4905600548 2.2514500618 1.1881201267
O  2.7670202255 3.6433901787 1.0302700996
C  4.4713902473 1.4328200817 0.0000000000
C  5.6615505219 1.4328200817 0.0000000000
H  2.3391702175 -1.8235200644 -1.0866100788
H  3.9034605026 -1.0148600340 -1.2281301022
H  2.4865000248 -0.3612400293 -2.0756802559
H  2.8368301392 -0.5117900372 0.9681500793
H  1.3789600134 0.0369300023 0.1459100246
H  2.6765902042 1.9075601101 -0.9256400466
H  2.9203002453 1.9219701290 2.1411499977
H  1.4019001722 2.1537702084 1.2599800825
H  3.7350103855 3.7372403145 0.9720501304
H  6.7276301384 1.4277501106 -0.0051300004
