21

C  0.9488500357 -0.0210000016 -0.0581000037
C  2.4607303143 0.1027200073 0.0107800001
C  2.9127302170 1.5565001965 -0.0391300060
O  4.3380804062 1.5857201815 0.0305300020
C  4.8374900818 2.9224901199 0.0245700032
C  6.3583402634 2.8665201664 0.0729800090
C  6.9746704102 4.2543201447 0.0792100057
H  0.6518600583 -1.0732901096 -0.0155900009
H  0.5635100007 0.4037400484 -0.9899100661
H  0.4749700427 0.5000000596 0.7793800831
H  2.9184401035 -0.4545500278 -0.8163500428
H  2.8311302662 -0.3663700223 0.9309600592
H  2.4924001694 2.1120600700 0.8063200712
H  2.5839502811 2.0235900879 -0.9736900926
H  4.4499502182 3.4602901936 0.8975101113
H  4.5061106682 3.4341900349 -0.8865700960
H  6.7329802513 2.2967002392 -0.7863500714
H  6.6787605286 2.3128802776 0.9641600847
H  6.6949806213 4.8113408089 -0.8205000758
H  8.0663909912 4.1847605705 0.1103000045
H  6.6455707550 4.8249206543 0.9530800581
