18

C  1.0125601292 0.0312200021 0.2754300237
C  2.5250902176 0.0044700005 0.0442800038
C  2.9591002464 -1.3014700413 -0.6510400772
C  2.7814900875 -1.0137201548 -2.1146101952
N  3.8084402084 -0.3519600332 -2.8990001678
C  2.7802002430 0.4765200317 -2.2956402302
C  2.9564001560 1.1072300673 -0.9463500977
H  0.7094300389 0.9776400328 0.7369100451
H  0.7098300457 -0.7817700505 0.9448201060
H  0.4514900446 -0.0793600082 -0.6596500278
H  3.0255403519 0.1223200113 1.0117100477
H  2.3646402359 -2.1618800163 -0.3281300068
H  4.0125403404 -1.5165801048 -0.4325100482
H  2.0292201042 -1.6009100676 -2.6221001148
H  4.6912102699 -0.2894600034 -2.3903002739
H  2.0269601345 0.9237300754 -2.9287400246
H  4.0096201897 1.3696901798 -0.7830900550
H  2.3607201576 2.0180401802 -0.8359801173
