14

C  1.0467001200 -0.3143600225 0.3889100254
C  2.5115799904 -0.0146400016 0.3195200264
C  3.1390202045 1.1379899979 0.0000000000
C  2.4250800610 2.3688800335 -0.3273300231
C  2.9773502350 3.5317802429 -0.7047200203
C  4.5450205803 1.1379899979 0.0000000000
N  5.6960306168 1.1379899979 0.0000000000
H  0.8263800740 -1.1917300224 -0.2277000099
H  0.4074500501 0.4972900450 0.0386700034
H  0.7673000097 -0.5474400520 1.4208800793
H  3.1309702396 -0.8813000917 0.5628900528
H  1.3410000801 2.3517200947 -0.2564300299
H  4.0485601425 3.6761703491 -0.8114500642
H  2.3495302200 4.3911204338 -0.9228900671
