19

C  1.9830400944 -0.4834100604 -1.3392000198
O  2.2277901173 0.0807000026 -0.0597600080
C  3.0533602238 1.2634000778 -0.0445000008
C  2.3813199997 2.5863902569 -0.4899700284
C  3.1700801849 3.2936000824 0.6282000542
C  3.2343502045 1.9274901152 1.3525100946
C  4.5210504532 1.6139800549 2.0888602734
H  1.3596601486 -1.3728600740 -1.2144600153
H  2.9267899990 -0.7751600146 -1.8091101646
H  1.4544200897 0.2331000119 -1.9744302034
H  4.0099501610 1.0817201138 -0.5543699861
H  1.2945201397 2.6051001549 -0.3495700061
H  2.6142702103 2.9163901806 -1.5058400631
H  4.1414804459 3.6807703972 0.2991000116
H  2.6331202984 4.0857300758 1.1563601494
H  2.3660299778 1.7634501457 2.0067901611
H  5.3995804787 1.7727301121 1.4548001289
H  4.5289402008 0.5711900592 2.4222600460
H  4.6230607033 2.2507603168 2.9735302925
