18

C  1.0031900406 0.0466400050 0.0049800002
C  2.5237102509 0.0092700003 0.0807100013
C  3.0822701454 -1.1303800344 0.9345601201
C  3.9327304363 -0.3034200370 1.8804601431
C  4.5661101341 0.7797300816 0.9735301137
N  3.1017501354 1.1994601488 0.7720100284
C  2.9999601841 0.8638200760 2.2659201622
H  0.6286900640 -0.8412500620 -0.5166300535
H  0.6653600335 0.9289801121 -0.5487600565
H  0.5325100422 0.0697200000 0.9930700660
H  2.9191303253 -0.0456200019 -0.9414401054
H  3.6937303543 -1.8209401369 0.3444300294
H  2.3121402264 -1.6951000690 1.4706001282
H  4.5354599953 -0.7839700580 2.6478800774
H  5.0896606445 0.4361300170 0.0743000060
H  5.1929607391 1.5318101645 1.4704701900
H  3.4214200974 1.6275601387 2.9335000515
H  2.0028600693 0.6069800258 2.6383500099
