19

C  1.1280500889 0.1888500154 0.1547800153
C  2.6226701736 -0.0385300033 -0.0671000034
C  2.8669202328 -0.7073300481 -1.4188001156
C  3.3688302040 1.2641100883 0.0086600007
O  3.6871402264 1.6894601583 1.3427700996
C  4.7905802727 1.3144301176 0.5090600252
C  5.6945204735 2.4358103275 0.1417300105
H  0.9464000463 0.6503900290 1.1314401627
H  0.5793100595 -0.7580400109 0.1207100078
H  0.7085500360 0.8543100953 -0.6079100370
H  2.9830403328 -0.7164500356 0.7174200416
H  2.5203502178 -0.0755900070 -2.2442603111
H  2.3439702988 -1.6673301458 -1.4804600477
H  3.9354403019 -0.8935900331 -1.5721801519
H  3.0277502537 2.0123002529 -0.6954500675
H  5.3140106201 0.3957900405 0.7363400459
H  5.1449108124 3.3660004139 -0.0362300016
H  6.2486104965 2.1882100105 -0.7687401175
H  6.4175405502 2.6155302525 0.9432400465
