11

O  1.2137399912 0.4608800411 -0.8571700454
C  2.0977799892 0.2331800163 -0.0392800048
C  3.1988501549 1.1954201460 0.1937400103
N  3.7154004574 1.8625401258 -1.0101701021
C  2.9741301537 2.6712300777 -0.0283600017
C  3.6638503075 3.5926003456 0.8300900459
N  4.2010602951 4.3246903419 1.5536202192
H  2.1196002960 -0.6923800707 0.5592100620
H  3.9546601772 0.8852800727 0.9066501260
H  3.1049201488 1.6599801779 -1.8102201223
H  1.9895402193 2.9949302673 -0.3513500094
