13

C  1.0841701031 0.0640200078 0.2021000236
C  2.3275799751 -0.1228500083 -0.2500800192
O  2.7311301231 -1.4021500349 -0.6363900900
C  4.0544500351 -1.2501301765 -1.2076600790
C  4.5325102806 0.1346700191 -0.9310501218
O  3.9570701122 1.1987301111 -1.6901201010
C  3.3618402481 0.8975501060 -0.4168600440
H  0.7322800159 1.0464500189 0.4955000281
H  0.3923600316 -0.7683600783 0.2750400305
H  4.7086105347 -1.9951500893 -0.7446200252
H  3.9942402840 -1.4489600658 -2.2827703953
H  5.5038704872 0.2391300201 -0.4789600372
H  3.5163104534 1.5894100666 0.4012300372
