14

C  1.4561101198 -0.6504300237 0.4147600532
C  2.4045100212 -0.1240100116 -0.3701500297
C  3.1487603188 1.1432300806 -0.0542900041
C  4.6513404846 0.8989700675 0.0393800028
C  5.4159502983 2.1713602543 0.3068900108
O  4.9042201042 3.2744202614 0.4626500607
H  0.9389600754 -1.5612001419 0.1285600066
H  1.1649000645 -0.1836600006 1.3507502079
H  2.6469702721 -0.6211200356 -1.3075901270
H  2.7857604027 1.5832700729 0.8828600645
H  2.9376201630 1.8745201826 -0.8438500762
H  5.0351800919 0.4773400128 -0.8960400820
H  4.8815803528 0.1979500204 0.8493900299
H  6.5120005608 2.0527300835 0.3611600399
