18

N  0.8227200508 -0.3120300174 0.0781899989
C  2.2108702660 -0.4044100344 -0.3630900383
C  2.5386099815 -0.0571800061 -1.7867901325
C  2.9559302330 0.8677300811 -0.6702900529
C  4.4045205116 1.0107901096 -0.3089300394
C  4.6442103386 1.1586700678 1.1678000689
C  5.4020004272 0.3269000351 1.8945300579
H  0.7801600099 -0.1215200052 1.0791500807
H  0.3401100039 -1.2000800371 -0.0608800016
H  2.7813501358 -1.2143000364 0.0873100087
H  1.7334902287 0.2684100270 -2.4362401962
H  3.2948400974 -0.6491800547 -2.2878003120
H  2.4191601276 1.8057601452 -0.5726800561
H  4.7992200851 1.9025502205 -0.8102900386
H  4.9789204597 0.1614399999 -0.7005200386
H  4.1617503166 2.0014102459 1.6591000557
H  5.9030904770 -0.5262200236 1.4474401474
H  5.5362606049 0.4855400324 2.9603202343
