17

C  0.8855500817 0.1591800153 -0.1603000164
C  2.3188102245 -0.2128700167 0.0042600003
C  3.0164501667 -1.0248601437 -1.0506700277
C  3.3751103878 0.4250500202 -0.8607700467
N  4.6506505013 0.8264100552 -0.2735400200
C  5.7816600800 0.8607700467 -1.0364300013
N  6.0175304413 0.2734600306 -2.1545002460
H  0.6531200409 1.0384000540 0.4496500194
H  0.2423800230 -0.6635200381 0.1693300158
H  0.6348500252 0.3912100196 -1.2009801865
H  2.5601902008 -0.4306900501 1.0381201506
H  2.4706902504 -1.2956600189 -1.9473401308
H  3.7279403210 -1.7746301889 -0.7239300609
H  3.0375902653 1.1212201118 -1.6257600784
H  4.6180806160 1.5037901402 0.4834600389
H  6.5698504448 1.4850901365 -0.5830700397
H  5.1984305382 -0.2806300223 -2.4143900871
