13

C  0.9045400620 -0.0090700006 -0.0008000000
N  2.3544602394 -0.1179300100 0.0055300002
C  3.0040502548 0.9829500318 0.0065900004
N  2.6162302494 2.3001103401 0.0031000003
C  3.6276602745 3.2256202698 0.0067400006
C  4.8603005409 2.7002203465 0.0131400004
S  4.7948703766 0.9477600455 0.0147600016
H  0.4699700177 -1.0135201216 -0.0095700007
H  0.5448500514 0.5127400160 -0.8940200806
H  0.5371600389 0.5008800626 0.8961000443
H  1.6484701633 2.5801801682 -0.0011100001
H  3.3790104389 4.2784700394 0.0044500004
H  5.7901406288 3.2506701946 0.0170300025
