14

C  1.0980101824 -0.1006900072 0.2618100047
C  2.3934400082 0.0132800015 -0.0335699990
C  3.2004303932 1.2726501226 -0.1056300029
C  4.5304799080 0.8225500584 -0.7188100815
C  4.4692702293 -0.6844800711 -0.6956500411
O  5.3704299927 -1.4493300915 -0.9945100546
N  3.1937403679 -1.0446500778 -0.3267900050
H  0.5984500051 -1.0638201237 0.2838200331
H  0.4982700348 0.7751600146 0.4852900505
H  3.3677504063 1.6758401394 0.8989000320
H  2.7226502895 2.0427200794 -0.7191500068
H  4.6188702583 1.1583800316 -1.7566000223
H  5.3837203979 1.1817401648 -0.1376600116
H  2.9118502140 -2.0151801109 -0.3024300337
