14

C  1.6399000883 -0.1756300181 -0.1467400193
C  0.7689700723 -1.1171101332 0.6708700061
O  -0.4622000456 -1.4296001196 0.0047100000
C  -1.4182100296 -0.4817600548 -0.1572500169
N  -1.3660901785 0.8002800345 0.0089200009
O  -0.1287200004 1.3192300797 0.4300400317
C  0.8872600794 1.0816501379 -0.5435200334
H  2.0109500885 -0.6704300642 -1.0514400005
H  2.5182201862 0.0918800011 0.4528000355
H  1.3009800911 -2.0624802113 0.8223000765
H  0.5508600473 -0.7200600505 1.6695101261
H  -2.3431003094 -0.9581100345 -0.5183100104
H  1.5634601116 1.9421800375 -0.5567200184
H  0.4575500190 0.9946400523 -1.5489901304
