20

C  0.4545000196 0.9322400689 -0.4387400448
C  1.6429700851 0.5378000140 0.4284800291
C  2.8387002945 1.5013201237 0.3170600235
N  2.4896802902 2.8492102623 0.7882700562
C  4.0365004539 0.9534100890 1.1217401028
C  5.3003001213 1.8016301394 0.9819100499
O  5.1331300735 3.0749502182 1.5922400951
H  -0.3238700330 0.1642400175 -0.3785400093
H  0.7501500845 1.0325801373 -1.4876900911
H  0.0104600005 1.8769801855 -0.1106900051
H  1.9642901421 -0.4671000540 0.1271500140
H  1.3137500286 0.4603200257 1.4724501371
H  3.1367101669 1.5771201849 -0.7361000776
H  2.0584702492 2.7790203094 1.7126201391
H  1.7638101578 3.2411804199 0.1841000021
H  4.2642602921 -0.0622700043 0.7765000463
H  3.7623803616 0.8852100968 2.1822702885
H  5.5633907318 1.9501801729 -0.0696400031
H  6.1411404610 1.3057301044 1.4758200645
H  4.2475905418 3.3888502121 1.3001400232
