15

C  2.8851501942 2.6011903286 -3.1369302273
C  2.0525503159 2.5785403252 -2.0903301239
O  2.3295900822 2.7178802490 -0.7610800862
C  3.6971702576 2.8837702274 -0.3644300401
O  4.2055201530 4.1746902466 -0.7066000700
C  5.4873604774 4.4652004242 -0.3355700374
C  6.3748106956 3.7035202980 0.3134400249
H  2.4944901466 2.4778802395 -4.1421804428
H  3.9527502060 2.7575302124 -3.0410702229
H  0.9837700725 2.4395601749 -2.2167301178
H  4.3110003471 2.0823202133 -0.7959200740
H  3.7075803280 2.7755801678 0.7262800336
H  5.7264008522 5.4753508568 -0.6537700295
H  6.1675305367 2.6939001083 0.6453000307
H  7.3632707596 4.0969305038 0.5334400535
