13

C  1.3718301058 -0.4631800354 0.7651100755
C  2.6288204193 -0.2609700263 -0.0253600013
O  2.8042402267 -0.6916900873 -1.1557900906
O  3.5282802582 0.4441900253 0.7091100812
C  4.7956404686 0.6678100824 0.0787400082
C  5.7455801964 -0.3765700459 0.4798000455
C  6.5190305710 -1.2368900776 0.8045600653
H  1.0378201008 0.4886600673 1.1866501570
H  1.5485401154 -1.1928901672 1.5587301254
H  0.5843700767 -0.8351900578 0.1034100130
H  5.1531500816 1.6432502270 0.4259800315
H  4.7070903778 0.7387900352 -1.0111401081
H  7.1999807358 -2.0051500797 1.0886701345
