14

C  -0.7026200294 1.9635801315 1.6592701674
C  -0.5999300480 0.5989699960 1.0549200773
N  0.2656800151 0.3506600261 0.1309200078
O  0.1476000100 -0.9969000816 -0.2584500313
C  1.0459200144 -1.2836800814 -1.2588500977
C  0.8986500502 -2.7271502018 -1.6413501501
O  1.8610701561 -0.5264500380 -1.7707501650
H  -0.5407800078 1.8861402273 2.7377302647
H  -1.7090901136 2.3528301716 1.4840201139
H  0.0349400006 2.6427900791 1.2246100903
H  -1.2950000763 -0.1698400080 1.4337902069
H  1.2467101812 -3.3621203899 -0.8238900900
H  1.5019102097 -2.9287002087 -2.5305500031
H  -0.1451200098 -2.9446501732 -1.8808301687
