20

C  1.0042300224 0.0190700013 -0.0205800012
C  2.5241100788 0.0023500002 0.0342900045
C  3.0914502144 1.0980800390 0.9226100445
N  4.4618201256 0.6423600316 1.1816899776
C  4.3511104584 -0.8055200577 1.4065200090
C  3.0985300541 -1.2753500938 0.6580100656
C  3.4027702808 -2.3427302837 -0.3872100413
H  0.6283300519 -0.7948200703 -0.6493600607
H  0.6437500715 0.9648301005 -0.4386200309
H  0.5655700564 -0.0955500081 0.9766501188
H  2.9129102230 0.1309300065 -0.9852100611
H  2.5438401699 1.1915901899 1.8668202162
H  3.0867402554 2.0743601322 0.4263100326
H  5.0141901970 0.7921100855 0.3354700208
H  5.2646002769 -1.3154201508 1.0830900669
H  4.2355904579 -0.9930100441 2.4805200100
H  2.3915200233 -1.6918500662 1.3864101171
H  4.1298403740 -1.9849001169 -1.1239900589
H  2.4935901165 -2.6342501640 -0.9218000770
H  3.8179004192 -3.2376303673 0.0873900056
