17

C  0.8281400800 0.1687600166 0.1542600095
C  2.2723600864 -0.2508600056 0.0417999998
C  2.4799501896 -1.7404900789 0.0540700033
C  3.2451503277 0.6756800413 -0.0629600063
C  4.7234406471 0.4608500302 -0.1991600096
C  5.4061002731 1.0296901464 1.0205100775
O  5.9540305138 2.1281502247 1.0431500673
H  0.7092100978 1.2574400902 0.1505700052
H  0.3950600326 -0.2086200118 1.0864200592
H  0.2511900067 -0.2317400128 -0.6856700778
H  2.0006101131 -2.1931102276 -0.8204400539
H  2.0330500603 -2.1749200821 0.9547900558
H  3.5313403606 -2.0341801643 0.0444200039
H  2.9556701183 1.7287001610 -0.0672900006
H  5.0900802612 0.9874400496 -1.0866800547
H  5.0184307098 -0.5855000615 -0.2971300483
H  5.3562502861 0.4045400321 1.9290300608
