15

C  0.9355500340 0.0360500030 -0.1252900064
C  2.4052801132 0.1057900116 0.0879800096
O  3.1763300896 -0.6532200575 -0.8437300920
C  3.3131101131 0.7815300822 -0.9150100946
C  4.6970100403 1.2963701487 -0.5733200312
C  5.9018206596 1.0540901423 -1.4482501745
O  5.2075705528 2.3051800728 -1.4615700245
H  0.4467500150 0.8911300898 0.3507300019
H  0.5337500572 -0.8786100745 0.3206500411
H  0.6730200648 0.0409400053 -1.1878401041
H  2.6901001930 0.0785300061 1.1308200359
H  2.8308904171 1.2666000128 -1.7603602409
H  4.8967304230 1.4415801764 0.4842600226
H  5.7887601852 0.4021600485 -2.3055202961
H  6.8770904541 1.0242800713 -0.9793500304
