13

O  0.9232500792 0.0440300032 -0.1731500179
C  2.0980300903 0.2420000136 -0.0209500026
C  3.4351100922 -0.4755900502 0.6508800983
C  3.5262801647 0.9963600636 1.3145200014
C  3.2234501839 1.4479200840 -0.2075500190
C  4.2859606743 0.7781000733 -1.0162900686
C  4.4203805923 -0.4431700408 -0.4708900154
H  3.3354802132 -1.3538800478 1.2787301540
H  2.7579500675 1.2439601421 2.0571103096
H  4.5059003830 1.2817201614 1.7116801739
H  2.9149003029 2.4636101723 -0.4283700585
H  4.8233504295 1.1953700781 -1.8541702032
H  5.0906400681 -1.2352800369 -0.7678300738
