15

C  0.9823600650 0.0480900034 -0.0099600004
N  2.4229700565 -0.0092400005 -0.0017800000
C  3.2513101101 1.0771100521 0.0089600002
N  4.5148000717 0.7204600573 0.0146500012
C  4.5011305809 -0.6487800479 0.0071300007
C  3.2092401981 -1.1359601021 -0.0033000002
C  2.7128801346 -2.5315701962 -0.0145000005
H  0.6558100581 1.0912301540 -0.0040500006
H  0.6097600460 -0.4590600431 0.8835300207
H  0.6206200719 -0.4457900226 -0.9152300358
H  2.8884201050 2.0967001915 0.0121800005
H  5.4226603508 -1.2167000771 0.0094600013
H  1.6210300922 -2.5913500786 -0.0081000011
H  3.0820600986 -3.0705001354 0.8641900420
H  3.0711402893 -3.0521800518 -0.9086200595
