13

C  1.1204001904 -0.0794100091 0.6002900600
C  2.5200002193 0.0000000000 0.0000000000
O  2.4755702019 -0.4902000427 -1.3502500057
N  2.6165001392 -1.8895301819 -1.3497400284
C  2.6295800209 -2.3026301861 -2.5715603828
C  3.0020201206 1.3611700535 0.0000000000
N  3.3862302303 2.4461600780 0.0000000000
H  1.1030801535 0.2995800078 1.6273601055
H  0.7600600719 -1.1140700579 0.6079500318
H  0.4028400481 0.4992300272 0.0077300007
H  3.2064301968 -0.6215100288 0.5892900229
H  2.7368400097 -3.3765602112 -2.7878000736
H  2.5387001038 -1.6236101389 -3.4367504120
