19

C  3.5558502674 5.0259304047 -2.7911200523
C  3.8018503189 4.6512904167 -1.3385200500
N  4.8551502228 3.6379401684 -1.2474400997
N  5.1625003815 3.2344002724 0.0072300006
C  6.1579804420 2.4084002972 0.0525100045
C  6.6288304329 1.8507301807 1.3669800758
C  6.4023904800 0.3519100547 1.4038701057
H  2.7724101543 5.7873806953 -2.8557803631
H  3.2314903736 4.1586403847 -3.3748402596
H  4.4609999657 5.4324502945 -3.2532501221
H  2.8740701675 4.2679405212 -0.8975600600
H  4.0975904465 5.5457701683 -0.7780400515
H  4.6081399918 2.8475801945 -1.8473701477
H  6.6998405457 2.0780601501 -0.8533900976
H  6.0950503349 2.3362903595 2.1904499531
H  7.6959805489 2.0718703270 1.4655500650
H  5.3393902779 0.1130100042 1.2950400114
H  6.7533903122 -0.0646100044 2.3530502319
H  6.9396805763 -0.1475800127 0.5905100703
