19

C  1.0719600916 -0.8503300548 -0.6970700026
C  1.9730401039 -0.3656600118 0.4306700528
C  2.6025302410 0.9742300510 0.1302100122
O  1.7500400543 2.0120501518 -0.2058400065
C  0.9579200745 2.4382300377 0.9006100297
C  3.9336802959 1.1488101482 0.0827000067
C  4.6307101250 2.4253103733 -0.2622900307
H  0.6579100490 -1.8338601589 -0.4522600174
H  1.6283001900 -0.9414500594 -1.6364701986
H  0.2324400097 -0.1664100140 -0.8624000549
H  2.7489202023 -1.1219301224 0.6003400683
H  1.3993500471 -0.3059900105 1.3616200686
H  0.4094500244 3.3333802223 0.5944600701
H  1.5871900320 2.6987202168 1.7580101490
H  0.2252300233 1.6757100821 1.1799302101
H  4.5870003700 0.3088900447 0.3062200248
H  3.9396402836 3.2471501827 -0.4705200493
H  5.2579402924 2.2771000862 -1.1468901634
H  5.2763504982 2.7294201851 0.5676900148
