16

C  1.9937502146 -0.4431500435 -1.2664901018
N  2.2065601349 0.1857200116 0.0352900028
C  3.1953001022 1.2605901957 -0.0926000103
C  2.4952802658 2.5629100800 -0.5791700482
C  3.2103502750 3.2554202080 0.6044700146
O  3.5312302113 4.3975005150 0.8525700569
C  3.4191801548 1.8944901228 1.3103201389
H  1.2403101921 -1.2305999994 -1.1693700552
H  2.9139802456 -0.9013700485 -1.6430201530
H  1.6242401600 0.2751000226 -2.0050201416
H  2.4783902168 -0.5427800417 0.6982000470
H  4.1248202324 1.0050400496 -0.6147900820
H  1.4048200846 2.6067001820 -0.4932600260
H  2.8077402115 2.9153602123 -1.5645501614
H  4.4180107117 1.7514201403 1.7288601398
H  2.6612701416 1.6997400522 2.0760002136
