17

C  3.0406703949 -0.8262100816 -0.9617201090
C  2.5738201141 0.0729900077 0.1760900170
C  2.9653000832 1.5151200294 -0.0345800035
C  2.0589702129 2.4605600834 -0.3353100121
C  4.4184503555 1.8509300947 0.1599700153
C  4.9251704216 3.2120103836 -0.2399100214
O  5.1814203262 1.0165700912 0.6489000320
H  2.6776401997 -1.8473201990 -0.8068400621
H  4.1327505112 -0.8663900495 -1.0208600760
H  2.6599700451 -0.4746100307 -1.9264100790
H  2.9767904282 -0.2913300097 1.1287500858
H  1.4828500748 -0.0144700008 0.2599000335
H  1.0091900826 2.2050101757 -0.4549700320
H  2.3082201481 3.5079703331 -0.4634400308
H  4.6123905182 3.4523801804 -1.2601801157
H  6.0202507973 3.2081501484 -0.2231800258
H  4.5680003166 3.9683501720 0.4640900493
