15

O  2.6596701145 -1.1448500156 0.3949800432
C  2.3614900112 0.0328000002 -0.3596700132
C  2.9792401791 1.2512700558 0.3385400176
O  2.4643001556 1.3002001047 1.6790100336
C  4.5108404160 1.2022700310 0.4077600241
C  5.1378903389 1.3015600443 -0.9186000824
C  5.6565303802 1.3748301268 -2.0009400845
H  2.2915000916 -1.8956501484 -0.1042600051
H  1.2712399960 0.1303900033 -0.3861400187
H  2.7343204021 -0.0892000049 -1.3806400299
H  2.6552600861 2.1661403179 -0.1704600155
H  2.5148801804 0.3777700365 2.0030500889
H  4.8413505554 0.2892700136 0.9174200296
H  4.8635902405 2.0285301208 1.0381201506
H  6.1222405434 1.4369301796 -2.9567601681
