13

C  1.0334501266 0.0001600000 -0.2049600035
C  2.3416302204 -0.0448500030 0.0453600027
C  3.1797902584 -1.1987500191 0.1893600076
C  4.4395303726 -0.8106600642 0.4384600222
C  4.6284899712 0.6897701025 0.4980200231
C  3.2124102116 1.1551901102 0.2305600196
O  2.8360700607 2.3148701191 0.1740000248
H  0.5191700459 0.9537701011 -0.2893000245
H  0.4448700249 -0.9015500546 -0.3310700357
H  2.8375802040 -2.2200000286 0.1076700091
H  5.2626104355 -1.4978600740 0.5868100524
H  4.9564704895 1.0088200569 1.4894800186
H  5.3015704155 1.0360500813 -0.2889900208
