14

C  1.0277501345 -0.0618200041 0.0559400059
C  2.5330803394 -0.1157800108 -0.0474600047
N  3.1072001457 -1.3835101128 -0.1292300075
C  3.2459104061 1.0257500410 -0.0401300006
C  4.7192702293 1.1292400360 -0.0506000035
O  5.3529305458 -0.0176200029 0.2659400105
O  5.2944002151 2.1781702042 -0.2895500362
H  0.6509300470 0.9645500779 0.1181900054
H  0.6904600859 -0.5963800550 0.9502800703
H  0.5723299980 -0.5318000317 -0.8221200109
H  2.3947801590 -2.1161301136 -0.0526400022
H  3.5441601276 -1.5094801188 -1.0516600609
H  2.7555100918 1.9940000772 -0.0089100003
H  4.6945405006 -0.7276200652 0.4595200419
