13

C  1.0022500753 -0.0640900061 0.0147700012
O  2.4214103222 -0.0069600008 0.0142800016
C  2.8940103054 1.3385500908 0.0000000000
C  4.3380103111 1.3385500908 0.0000000000
C  5.5281705856 1.3385500908 0.0000000000
C  7.0603404045 1.3397201300 -0.0000000000
C  8.2596511841 1.3400900364 0.0000000000
H  0.6997100711 -1.1146399975 0.0259600021
H  0.5988400578 0.4055400193 -0.8875600696
H  0.5986900926 0.4247100353 0.9067900777
H  2.5145001411 1.8648201227 0.8831700683
H  2.5145001411 1.8459701538 -0.8941400647
H  9.3249702454 1.3379501104 0.0000300000
