21

C  1.0666601658 -0.0970100015 0.1721700132
N  2.5232400894 -0.0933400095 0.0965700075
C  3.0308101177 1.2726501226 -0.0937100053
C  4.5861301422 1.3538100719 -0.1563300043
C  5.1302804947 0.5979100466 -1.3751101494
N  4.9773302078 2.7808701992 -0.1832800061
C  6.4167404175 2.9846701622 -0.0735600069
H  0.7125700712 -1.1222401857 0.3185099959
H  0.6164500117 0.2858200073 -0.7494700551
H  0.7114600539 0.4982700348 1.0196400881
H  2.8062603474 -0.6726100445 -0.6940900683
H  2.6845901012 1.8896402121 0.7460700870
H  2.6090102196 1.7017301321 -1.0125100613
H  4.9861502647 0.8935700655 0.7566500902
H  4.7669701576 1.0382801294 -2.3101801872
H  4.8312201500 -0.4543300271 -1.3593801260
H  6.2245001793 0.6028300524 -1.3989601135
H  4.5296301842 3.2505002022 0.6043100357
H  6.9399404526 2.6720001698 -0.9812800884
H  6.8380804062 2.4609301090 0.7903000116
H  6.6185202599 4.0531101227 0.0538400039
