21

C  2.0755503178 -1.0391601324 -0.1566200256
N  3.2338204384 -0.2311900109 0.2025200129
C  2.9453301430 1.2000000477 0.0273600016
C  4.1534705162 2.0610101223 0.4629100561
N  4.0060501099 3.5031802654 0.1740200222
C  2.9005200863 4.1012701988 0.9245600700
C  5.2539606094 4.1998100281 0.4960900545
H  2.3183901310 -2.0992000103 -0.0329500027
H  1.7801401615 -0.8801400661 -1.1986200809
H  1.2236900330 -0.8193200231 0.4956700504
H  4.0170202255 -0.4861400425 -0.3995800316
H  2.0712301731 1.4636601210 0.6323900819
H  2.7107400894 1.4065401554 -1.0237500668
H  5.0342407227 1.6923500299 -0.0815100074
H  4.3502006531 1.9000101089 1.5317200422
H  1.9371801615 3.6966102123 0.5982700586
H  2.8487102985 5.1808805466 0.7389200926
H  2.9997103214 3.9445004463 2.0043900013
H  6.0858101845 3.7977001667 -0.0927400067
H  5.5113601685 4.1175503731 1.5591801405
H  5.1787705421 5.2636499405 0.2415800244
