10

C  0.9846900702 -0.0321900025 -0.0538300015
C  2.4939303398 0.0241300017 0.0741800070
C  2.9697303772 1.4516102076 0.0374000035
O  3.7167100906 1.9355901480 0.8824500442
H  0.6369300485 -1.0692000389 -0.0255100019
H  0.6522600651 0.4154800475 -0.9961701035
H  0.5020400286 0.5154900551 0.7622100711
H  2.9674303532 -0.5132600069 -0.7534300685
H  2.8136003017 -0.4353900254 1.0147800446
H  2.6536202431 2.0425400734 -0.8393900394
