18

C  1.9294401407 -0.6230600476 0.6130599976
N  3.2980701923 -0.5612100363 0.1129600108
C  3.8273501396 0.8037300706 0.2198800147
C  5.2798104286 0.8318300843 -0.2461800277
C  5.8750004768 2.2218201160 -0.1461900175
C  7.3396606445 2.3427803516 -0.4773100317
O  5.2087302208 3.2130701542 0.1514300108
H  1.5566201210 -1.6482501030 0.5259100199
H  1.2626500130 0.0280900020 0.0385400020
H  1.8812801838 -0.3441400230 1.6706001759
H  3.3037302494 -0.8520500660 -0.8647200465
H  3.7739503384 1.1472001076 1.2604700327
H  3.2254600525 1.4900901318 -0.3885800242
H  5.3540606499 0.5089200735 -1.2908900976
H  5.8850607872 0.1589200199 0.3723100126
H  7.9177203178 1.6653801203 0.1561399996
H  7.6766505241 3.3666300774 -0.2930000424
H  7.4964804649 2.0996000767 -1.5310500860
