17

C  0.9666800499 0.1117400080 0.0222900007
C  2.4462900162 -0.0082700001 0.0028900004
C  3.2056403160 -1.1038700342 -0.0780200064
C  2.7771003246 -2.5221102238 -0.1730400026
C  4.6408901215 -0.7224800587 -0.0536600053
O  4.6651902199 0.7150400877 -0.0241900012
C  3.3151702881 1.1948200464 0.0883500054
H  0.4753300548 -0.8633300662 -0.0470100045
H  0.6238500476 0.7201901078 -0.8204200864
H  0.6362700462 0.5883400440 0.9504300952
H  3.6424002647 -3.1895203590 -0.2462100238
H  2.1590001583 -2.6831600666 -1.0622900724
H  2.2064001560 -2.8152301311 0.7145800591
H  5.1480202675 -1.0988601446 0.8395100832
H  5.1730303764 -1.0602400303 -0.9475401044
H  3.1269001961 1.8980500698 -0.7288900018
H  3.2055704594 1.7098101377 1.0473300219
