16

C  1.0432400703 0.0083600003 0.0150200017
C  2.3745503426 -0.0561500043 0.0001400000
C  3.3010101318 -1.2279500961 0.0512300022
C  4.5892500877 -0.3882300258 -0.0388000011
C  4.3776102066 0.7137000561 -1.1362500191
C  3.2874703407 1.1086801291 -0.0763600096
N  4.3794202805 0.7711001039 0.9413800240
H  0.4434100389 -0.8937800527 0.0780400038
H  0.5207900405 0.9588700533 -0.0227600019
H  3.1915900707 -1.8928201199 -0.8095501065
H  3.2380404472 -1.7807701826 0.9925100803
H  5.5534906387 -0.8954300284 0.0100500006
H  4.0249705315 0.3752400279 -2.1151101589
H  5.1999802589 1.4251601696 -1.2778900862
H  2.8842802048 2.1209301949 -0.0590900034
H  5.1423301697 1.4470101595 0.9616600275
