12

C  0.9257300496 0.0531100035 -0.0043200003
C  2.1264300346 0.0217200015 -0.0012500001
C  3.5500402451 -0.0185200013 0.0025000002
C  4.3721704483 1.0853101015 0.0050400002
N  5.6701107025 0.6420800090 0.0085500004
C  5.6832904816 -0.7295000553 0.0082400013
C  4.3759503365 -1.1665601730 0.0045800004
H  -0.1381700039 0.0800900012 -0.0069700009
H  4.1489005089 2.1436002254 0.0046900003
H  6.4902405739 1.2350801229 0.0110000009
H  6.6175804138 -1.2746800184 0.0107700005
H  4.0542602539 -2.1996901035 0.0033300002
