10

O  2.5526301861 -1.2010201216 0.0645000041
C  2.1187102795 -0.0534000061 -0.0000700000
C  2.9018404484 1.1546500921 0.0033700003
C  2.4687800407 2.4625701904 -0.0666800067
N  3.4617004395 3.4234402180 -0.0426200032
C  4.6330299377 2.8310902119 0.0452800021
S  4.6103601456 1.1171901226 0.1030800119
H  1.0283200741 0.1053600088 -0.0683600083
H  1.4356501102 2.7821502686 -0.1372100115
H  5.5620002747 3.3858501911 0.0796600059
