14

C  0.8881100416 0.0091500012 0.0191800017
C  2.3786401749 -0.0842300057 -0.0121600004
C  3.1957502365 0.9821900725 0.0130200014
C  4.6868801117 0.9044000506 -0.0133500015
N  5.1880102158 1.6441302299 -1.1607000828
H  0.5002100468 -0.5220700502 0.8937300444
H  0.4672900438 -0.4529800415 -0.8790600300
H  0.5382100344 1.0452201366 0.0660500079
H  2.7973902225 -1.0864400864 -0.0604700036
H  2.7731301785 1.9835801125 0.0650300086
H  5.0369801521 -0.1325500011 -0.0613900051
H  5.0854601860 1.3465601206 0.9056900144
H  4.8474602699 1.1957200766 -2.0102701187
H  6.2025804520 1.5640901327 -1.1881201267
