13

N  1.0409600735 0.0528300032 0.2944100201
C  2.4194402695 0.0841700062 0.0944100022
C  3.0962102413 1.2942700386 0.0315000005
C  4.4759802818 1.2846001387 -0.1526800096
C  5.1343903542 0.0674000084 -0.2613000274
C  4.3791003227 -1.0890901089 -0.1779100150
N  3.0379002094 -1.1037100554 -0.0020000001
H  0.5564300418 0.5976400375 -0.4085800350
H  0.7694600821 -0.9269700646 0.2626500130
H  2.5608801842 2.2320601940 0.1365600079
H  5.0288805962 2.2178502083 -0.2024600208
H  6.2088203430 0.0197200011 -0.4010000527
H  4.8441305161 -2.0677101612 -0.2506200075
