16

N  3.1207802296 -1.1178801060 -0.3608000278
C  2.3781101704 0.0588200055 0.0741800070
C  3.2842402458 1.2453100681 0.0306400023
C  3.2048201561 2.2791800499 -1.0661500692
O  2.1673002243 2.1333100796 -2.0478003025
C  2.7262902260 2.6141502857 0.3219900429
O  3.5595800877 3.5024003983 1.0852100849
H  2.4791901112 -1.9068101645 -0.4215900302
H  3.8077902794 -1.3671500683 0.3478100300
H  2.0224602222 -0.0984100103 1.0983800888
H  1.4967302084 0.1906000227 -0.5612800717
H  4.2614402771 1.0218000412 0.4427200258
H  4.1454706192 2.7040603161 -1.4010901451
H  1.9947601557 2.9781200886 -2.4983601570
H  1.6540201902 2.7053902149 0.4668900371
H  4.5024704933 3.2730600834 1.0228900909
