13

C  0.9615400434 -0.0066500008 -0.0080600008
C  2.4397201538 0.0225500017 -0.0011800000
C  3.2874703407 1.0499300957 0.0042100004
O  4.6419100761 0.6785200834 0.0107800001
C  4.5446906090 -0.7048100233 0.0093600005
N  5.5964503288 -1.4366701841 0.0150600011
N  3.2363700867 -1.0813200474 0.0017300001
H  0.5430000424 1.0049500465 -0.0044800001
H  0.5839100480 -0.5315100551 0.8750900626
H  0.5920700431 -0.5220100284 -0.9002000690
H  3.1070702076 2.1096601486 0.0045200000
H  5.3174805641 -2.4180099964 0.0128800012
H  2.8878002167 -2.0241501331 0.0009500001
