17

C  0.9172900915 0.0571300052 0.0030300003
C  2.4440903664 0.0527000017 0.0338700041
C  3.0247001648 0.1038300097 -1.3754301071
O  2.8834502697 -1.1728700399 0.6621600389
C  3.3843302727 -0.8623000979 1.9748201370
C  3.5152401924 0.6123800278 2.0076401234
C  2.9837801456 1.1378101110 0.9065500498
H  0.4988600314 -0.0434200056 1.0122001171
H  0.5395500064 -0.7974800467 -0.5706900358
H  0.5226900578 0.9767800570 -0.4430800378
H  4.1205205917 0.0585900061 -1.3551001549
H  2.7283201218 1.0174200535 -1.9026602507
H  2.6922302246 -0.7589900494 -1.9645401239
H  4.3444705009 -1.3653500080 2.1117901802
H  2.6703300476 -1.2214500904 2.7226600647
H  3.9617903233 1.1675300598 2.8183002472
H  2.9281404018 2.1925802231 0.6768200397
