13

C  1.0293800831 0.0101900008 0.0009600001
C  2.5252301693 0.0472300015 -0.0063900002
N  3.1620402336 1.1733601093 -0.0374900028
N  4.5574803352 1.2060000896 -0.0454000048
C  5.1757006645 0.0740300044 -0.0115900012
C  4.4772300720 -1.2475701571 0.0365300030
O  3.0663702488 -1.1914001703 0.0275400020
H  0.6623900533 -1.0199201107 -0.0155800013
H  0.6486700177 0.5334500670 -0.8801000714
H  0.6598100066 0.5025100708 0.9049100876
H  6.2762904167 0.0629100055 -0.0157800000
H  4.8097801208 -1.8392701149 -0.8221500516
H  4.8015303612 -1.7713401318 0.9410700798
