17

O  1.0246701241 0.0489100069 -0.0709400102
C  2.4402799606 0.0273900032 -0.0076200003
C  2.9691503048 1.1314101219 0.8907200694
C  4.3808302879 0.6574400663 1.1977000237
C  4.2500600815 -0.8540500402 1.3840900660
C  2.9661002159 -1.2555401325 0.6513800621
O  3.2049901485 -2.2623200417 -0.3255700171
H  0.7541700602 -0.7874000669 -0.4932400286
H  2.8258900642 0.1353700161 -1.0283100605
H  2.3706803322 1.2154500484 1.8060700893
H  2.9528303146 2.1081900597 0.3972900510
H  5.0386605263 0.8674600720 0.3457500339
H  4.8039302826 1.1489800215 2.0784602165
H  5.1395006180 -1.3829801083 1.0271700621
H  4.1394701004 -1.0772701502 2.4519002438
H  2.2343401909 -1.6641200781 1.3573000431
H  3.9396502972 -1.9687601328 -0.8902300596
