17

C  1.2233901024 0.0142200002 -1.0321700573
C  2.0776901245 0.2863000333 -0.0369600020
C  3.3335902691 1.1375401020 -0.0879800096
C  3.8787102699 1.5185400248 -1.4812400341
C  3.4605903625 2.9440801144 -1.6453801394
C  3.0435903072 3.4733102322 -0.4914800525
C  3.1071102619 2.4855401516 0.6298699975
H  0.3543600142 -0.6129200459 -0.8549200892
H  1.3416701555 0.4140900373 -2.0331401825
H  1.8598201275 -0.1427800059 0.9413200617
H  4.1054701805 0.5632300377 0.4416400194
H  3.5043001175 0.8864600658 -2.2900102139
H  4.9736905098 1.4628901482 -1.4954600334
H  3.5252103806 3.4812602997 -2.5814602375
H  2.7210903168 4.4976005554 -0.3651000261
H  3.9494702816 2.7283601761 1.2872500420
H  2.1873002052 2.5046103001 1.2237300873
