17

C  3.6031303406 -1.2250901461 0.1085300148
O  2.6981601715 -0.1887700111 0.4750300348
C  3.1310601234 1.0989301205 0.3138500154
C  4.3079905510 1.5428901911 -0.1491700113
C  4.6238102913 2.9484202862 -0.2652300298
C  5.8015904427 3.3879601955 -0.7333000898
C  6.1612505913 4.8318204880 -0.8680900931
H  3.1101803780 -2.1846501827 0.2910900116
H  4.5089306831 -1.1882101297 0.7224900723
H  3.8507602215 -1.1700801849 -0.9566600919
H  2.3373103142 1.7695101500 0.6330500245
H  5.0808000565 0.8453700542 -0.4605800509
H  3.8624701500 3.6624302864 0.0438800044
H  6.5661706924 2.6794703007 -1.0442301035
H  5.3544301987 5.4935603142 -0.5383200049
H  6.3870306015 5.0621504784 -1.9138301611
H  7.0500807762 5.0506305695 -0.2684000134
