18

N  2.4260501862 -0.4250800312 1.8707301617
C  2.3438000679 -0.2928200364 0.4154600501
C  3.3465201855 0.7368600368 -0.1124900058
C  4.8186802864 0.4380600452 0.2024000138
O  5.0505003929 0.4431800246 1.6183401346
C  5.3139801025 -0.8994500637 -0.3554600179
O  6.7068204880 -1.0397701263 -0.0717500076
H  1.7543301582 -1.1347600222 2.1748001575
H  2.0979301929 0.4454700351 2.2997903824
H  1.3282101154 0.0130900005 0.1407200098
H  2.5199801922 -1.2698800564 -0.0455900021
H  3.0915403366 1.7160301208 0.3134300113
H  3.2228503227 0.8189000487 -1.1987800598
H  5.4413604736 1.2434800863 -0.2043800056
H  4.2836403847 -0.0293300021 2.0152201653
H  5.1758804321 -0.9571400881 -1.4392900467
H  4.8091502190 -1.7473500967 0.1170000136
H  6.8142304420 -0.7052100301 0.8417000771
