15

O  0.7016100287 1.6021701097 -0.2459400147
N  1.9778901339 1.3234701157 -0.7512300611
C  2.8508303165 1.5326502323 0.1814300120
C  4.3608002663 1.3023401499 -0.0863300040
C  5.1347904205 2.3933801651 -0.8585600853
C  6.2503008842 2.1391901970 0.1640100181
N  5.2148804665 1.6357201338 1.0949200392
H  0.1298800111 1.4379701614 -1.0193001032
H  2.5567502975 1.8702801466 1.1920300722
H  4.5563907623 0.2911199927 -0.4693300426
H  4.6921706200 3.3943803310 -0.8025500178
H  5.3798704147 2.1642003059 -1.8988901377
H  6.9759202003 1.3763301373 -0.1418200135
H  6.7872505188 3.0260603428 0.5106600523
H  5.5023903847 0.8304000497 1.6499500275
