17

C  0.9401400685 -0.1801600158 0.3550900221
C  2.2341401577 0.4368700385 -0.1370200068
C  3.0601902008 1.2226901054 0.8861100674
C  4.0400505066 0.0449500047 0.8066900373
O  3.2720103264 -0.5665200353 -0.2636100054
C  5.4499106407 0.4054800272 0.5050500631
C  5.8836402893 0.5972000360 -0.7468701005
H  0.5220400095 -0.8520000577 -0.4012700319
H  0.1980200112 0.5975500345 0.5607400537
H  1.0907801390 -0.7566900849 1.2738400698
H  2.1002101898 0.9704400897 -1.0856400728
H  2.5959601402 1.3677000999 1.8658602238
H  3.4282102585 2.1846702099 0.5157800317
H  3.9972403049 -0.5996900797 1.6942200661
H  6.1325001717 0.5065600276 1.3427600861
H  5.2244405746 0.4912800491 -1.6038300991
H  6.9195609093 0.8540100455 -0.9429300427
