13

C  0.8692500591 0.2267100066 0.0767700076
C  2.1366901398 0.2203100175 0.5087600350
C  3.1059801579 1.2350201607 0.0321500003
O  2.6550502777 2.6155502796 0.0396400020
C  3.6092402935 3.0511202812 1.0362200737
C  4.1393303871 1.6250101328 1.0943801403
O  5.0087504387 1.0547300577 1.7215601206
H  0.1610000134 -0.5217800140 0.4193000197
H  0.5055300593 0.9789301157 -0.6184700727
H  2.4809601307 -0.5432699919 1.2013400793
H  3.5579802990 0.9724400640 -0.9302400351
H  4.3117303848 3.7870903015 0.6423500776
H  3.1238403320 3.3989901543 1.9492701292
