12

N  1.1037100554 -0.1070500091 -0.1075200066
C  2.4271502495 0.0668800026 -0.0552900024
C  3.2210800648 1.1895400286 -0.0193600003
C  4.5600104332 0.7252800465 0.0268100016
C  4.4747400284 -0.6428501010 0.0175900012
O  5.3543701172 -1.6234501600 0.0428900011
O  3.1867902279 -1.0579200983 -0.0288500022
H  0.4704600275 0.6559200883 0.1020600051
H  0.7279300094 -1.0317801237 0.0729100108
H  2.8808403015 2.2144000530 -0.0308000017
H  5.4688200951 1.3073900938 0.0587900057
H  4.7961502075 -2.4197502136 0.0082800006
