17

C  1.2329101562 -0.2370300144 -0.3807800412
C  2.6323902607 -0.0189800020 0.0772100016
C  3.7916202545 -0.5414200425 -0.7431400418
N  3.5635101795 0.8910400867 -0.5806500912
C  3.1393003464 1.6582500935 -1.6466602087
C  2.2279701233 2.8273801804 -1.3485500813
N  3.4897003174 1.4874401093 -2.8819000721
H  0.5847600698 0.5662400723 -0.0173700005
H  0.8542200327 -1.1818799973 0.0226500016
H  1.1471800804 -0.2829800248 -1.4713201523
H  2.7260901928 -0.0125900013 1.1558099985
H  3.5837104321 -0.9640001059 -1.7158601284
H  4.6737799644 -0.8915500641 -0.2272000164
H  2.0830001831 2.9482402802 -0.2717400193
H  1.2583100796 2.6590001583 -1.8257501125
H  2.6679000854 3.7436101437 -1.7529001236
H  4.1569004059 0.7145800591 -2.9317502975
