15

C  2.6500201225 -0.6141400337 -1.6364901066
C  2.6683902740 -0.2819400430 -0.1552200019
N  3.2635900974 1.0246000290 0.0654200017
C  4.6034002304 1.2709101439 0.2358000129
C  5.1965999603 2.4693500996 0.2904800177
C  6.5975208282 2.6082401276 0.4807600379
N  7.7407002449 2.7296202183 0.6349200606
H  2.1775200367 -1.5873301029 -1.8021901846
H  3.6649103165 -0.6533000469 -2.0458002090
H  2.0900201797 0.1388100088 -2.2011601925
H  3.2126803398 -1.0542800426 0.4000900388
H  1.6428800821 -0.2702600360 0.2293900251
H  2.6770303249 1.8236202002 -0.1647000164
H  5.1965603828 0.3614100218 0.3401600122
H  4.6185302734 3.3794801235 0.1969900131
