13

C  1.1080901623 -0.0585600063 0.0387900025
C  2.6117601395 -0.0812700093 0.0457400009
C  3.2056403160 -1.4460101128 0.1414800137
O  2.5011200905 -2.4491600990 0.2112000138
C  3.3281502724 1.0534400940 -0.0304200016
C  4.8023304939 1.2056500912 -0.0335399993
O  5.5952005386 0.2813400328 0.0571400076
H  0.7123900652 0.9603300691 -0.0301600024
H  0.7131600380 -0.5026400089 0.9586001039
H  0.7197300792 -0.6205600500 -0.8170800805
H  4.2988204956 -1.5294401646 0.1457700133
H  2.8099801540 2.0064702034 -0.1001400054
H  5.1468901634 2.2506301403 -0.1253600121
