19

C  0.8848600984 0.0284400005 -0.2374100089
C  2.3713700771 0.0300500020 0.0189700015
C  2.7352502346 -0.0318700038 1.4795000553
C  3.2631402016 -0.6939100623 -0.9702200890
C  3.2411503792 0.8143801093 -0.9543800950
C  4.4445605278 1.5877001286 -0.5305200219
O  5.2766704559 1.7923702002 -1.6636700630
H  0.6524299979 0.0715300068 -1.3069601059
H  0.4164500237 0.8928300738 0.2436400205
H  0.4294300377 -0.8814300895 0.1670800000
H  3.8020303249 -0.2152500153 1.6400201321
H  2.1901001930 -0.8433500528 1.9739001989
H  2.4716200829 0.9083400965 1.9748902321
H  2.8015701771 -1.1963400841 -1.8142201900
H  4.1422204971 -1.2070901394 -0.5947900414
H  2.7376000881 1.3185601234 -1.7748100758
H  5.0362405777 1.0791201591 0.2349400222
H  4.1479101181 2.5669701099 -0.1435000151
H  5.4768304825 0.9113100767 -2.0230002403
