11

C  1.1193100214 -0.2417900115 0.0325200036
C  2.4531700611 -0.1909300238 0.0399800017
N  3.1338102818 0.9966000319 -0.0098500010
C  4.5189704895 1.0893800259 -0.0039100004
O  5.2844805717 0.1316900104 0.0459200032
C  5.0527005196 2.4457702637 -0.0625400022
N  5.4171605110 3.5498101711 -0.1107700095
H  0.6102600098 -1.2005900145 0.0730600059
H  0.4982700348 0.6462300420 -0.0130500011
H  3.0503602028 -1.1013600826 0.0864199996
H  2.6001002789 1.8585901260 -0.0535700023
