17

C  1.0093500614 0.0463700034 0.0295900013
C  2.4944801331 0.0114400005 -0.0360700004
C  3.2696802616 -1.0782600641 -0.1284200102
C  4.7208504677 -0.7297400832 -0.0897900090
C  4.7184605598 0.7819300890 -0.3058000207
C  3.3143103123 1.2596302032 0.0724500045
O  2.8659203053 2.2446403503 -0.8407000899
H  0.5818700194 -0.9613800645 0.0000800000
H  0.5992000103 0.6085000634 -0.8148700595
H  0.6798599958 0.5236600637 0.9583900571
H  2.9054801464 -2.0954401493 -0.1765200049
H  5.1502208710 -0.9983900785 0.8809300661
H  5.2819104195 -1.2396500111 -0.8788100481
H  4.9483699799 1.0165101290 -1.3535300493
H  5.4874505997 1.2741401196 0.2998400033
H  3.2829504013 1.6660201550 1.0884801149
H  2.7341401577 1.8006000519 -1.6957801580
