19

N  2.1939501762 -0.4321200252 -1.4039500952
C  2.3784902096 0.0444000028 -0.0377600007
C  3.2248501778 1.3087900877 -0.0279600024
C  2.5709102154 2.6094000340 -0.5723000765
C  3.1599202156 3.3746304512 0.6288000941
N  4.4700102806 3.9160902500 0.2660900354
C  3.3442602158 2.0225200653 1.3458901644
H  1.6313600540 -1.2819501162 -1.3917801380
H  3.0953402519 -0.6963100433 -1.7996701002
H  2.8663001060 -0.7380100489 0.5540400147
H  1.3960301876 0.2306000143 0.4097500443
H  4.2151203156 1.1256501675 -0.4709900320
H  1.4736001492 2.5901601315 -0.5632500648
H  2.8939902782 2.9194803238 -1.5713601112
H  2.4940702915 4.0917201042 1.1148600578
H  5.0735206604 3.2845101357 -0.2580900192
H  5.0167603493 4.2372503281 1.0631301403
H  4.2857904434 1.8630301952 1.8812401295
H  2.5219202042 1.7958401442 2.0363702774
