19

C  0.8778100610 -0.4700600505 0.4403200448
C  2.3442602158 -0.3610200286 0.0153600015
C  2.7466502190 -1.6082700491 -0.7733900547
C  2.5593502522 0.9357400537 -0.7856301069
C  4.0185999870 1.1885900497 -1.1588101387
C  4.2166004181 2.5146303177 -1.8551701307
O  3.3190300465 3.3079802990 -2.1169400215
H  0.5839600563 0.3912000358 1.0494700670
H  0.7110800147 -1.3724601269 1.0382400751
H  0.2139900178 -0.5127100348 -0.4298300445
H  2.9561002254 -0.3184300065 0.9251300693
H  2.2200000286 -1.6587101221 -1.7323402166
H  2.5102403164 -2.5175101757 -0.2098900080
H  3.8223202229 -1.6233701706 -0.9727900624
H  2.1937801838 1.7839201689 -0.1920800209
H  1.9481600523 0.9161300659 -1.6979901791
H  4.3900303841 0.4150900245 -1.8386300802
H  4.6474800110 1.1911801100 -0.2618300319
H  5.2599201202 2.7403299809 -2.1341001987
