10

C  -0.6356000304 -1.2436901331 -0.0220400020
C  -1.3941102028 -0.0826400071 -0.0249600019
C  -0.7303100824 1.1261301041 0.0594300032
N  0.6128300428 1.2134901285 0.1434500068
N  1.3574000597 0.0738300085 0.1463200152
C  0.7378100753 -1.1214700937 0.0650800020
H  -1.1022599936 -2.2198901176 -0.0860200077
H  -2.4751803875 -0.1181600094 -0.0913000032
H  -1.2592101097 2.0718402863 0.0624000020
H  1.3917101622 -1.9856401682 0.0726300031
