16

O  2.3442702293 -0.9850500822 0.9643200636
C  2.1563901901 -0.0532400049 -0.0934800059
C  2.9459800720 1.2223801613 0.1760300100
C  4.4674806595 1.0905699730 0.0075200005
C  5.1730504036 0.3136600256 1.1138801575
O  4.9683203697 -1.0827201605 0.9755800962
H  1.7171801329 -1.7150001526 0.8051700592
H  1.0888800621 0.1816300154 -0.1487000138
H  2.4618802071 -0.5188300610 -1.0352500677
H  2.7275102139 1.5898901224 1.1861200333
H  2.6001603603 1.9875102043 -0.5305200219
H  4.8837604523 2.1057400703 -0.0059200008
H  4.6845002174 0.6363100410 -0.9666800499
H  4.8412003517 0.6292700171 2.1080901623
H  6.2512607574 0.4876600206 1.0502001047
H  4.0104203224 -1.2289100885 1.1342800856
