16

C  1.8209100962 -0.3159000278 1.4864001274
C  2.2659301758 0.0943700075 0.0918700024
C  2.9794402122 1.4170001745 0.1091500074
C  4.3067402840 1.6364601851 0.0000000000
C  5.3414402008 0.5505000949 -0.1011700109
C  4.7760701180 2.9618101120 0.0000000000
N  5.1602902412 4.0468001366 0.0000000000
H  1.2761300802 -1.2638701200 1.4448301792
H  1.1587600708 0.4353800416 1.9289201498
H  2.6804702282 -0.4482600391 2.1512701511
H  1.3860400915 0.1868700087 -0.5573400259
H  2.8801701069 -0.6972100735 -0.3487900198
H  2.3147702217 2.2780001163 0.2004800290
H  4.9561905861 -0.4374400377 0.1643700153
H  6.1755604744 0.7520100474 0.5812600255
H  5.7392005920 0.4995900393 -1.1204600334
