16

C  1.0340900421 -0.0181799997 -0.0193600003
C  2.5497400761 -0.0173500013 0.0962000042
C  3.0779602528 1.1962200403 0.8580900431
C  4.3792004585 0.6465300918 1.3591700792
O  5.3005704880 1.3312901258 1.7847201824
C  4.3939399719 -0.8635300994 1.2655001879
N  3.0174503326 -1.1847701073 0.8575200438
H  0.6837300062 -0.9010900259 -0.5656200051
H  0.6889600158 0.8703000546 -0.5594600439
H  0.5531400442 -0.0195200015 0.9657101035
H  2.9905002117 -0.0432700068 -0.9092700481
H  2.4531900883 1.4692400694 1.7136301994
H  3.2424302101 2.0513100624 0.1985000074
H  5.1136403084 -1.1693000793 0.5007400513
H  4.6255903244 -1.3106601238 2.2342300415
H  2.9978902340 -2.0292801857 0.2870600224
