17

C  0.9972500801 -0.3086800277 0.0799600035
C  2.4798700809 0.0161300004 -0.0683700070
C  3.0945403576 -0.6986600161 -1.2669100761
C  2.6947603226 1.5225701332 -0.1778900027
N  2.1785101891 2.2241702080 -1.1460901499
N  3.4621002674 2.1437001228 0.7828000784
O  3.9474503994 3.3885602951 0.3599000275
H  0.5604300499 0.2433800101 0.9193800688
H  0.8525000215 -1.3782801628 0.2654000223
H  0.4304000139 -0.0445100032 -0.8193600178
H  2.9936802387 -0.3336200118 0.8357501030
H  2.5967600346 -0.4238400459 -2.2033300400
H  3.0183203220 -1.7850902081 -1.1515901089
H  4.1546702385 -0.4419200122 -1.3701000214
H  1.6350101233 1.6220700741 -1.7738100290
H  4.1440701485 1.5854700804 1.2898401022
H  3.3063902855 3.6292302608 -0.3502200246
