12

O  1.4055300951 -0.2417500168 0.1462000161
C  2.6960101128 0.3142400384 -0.0458600037
C  3.1560101509 -0.0673699975 -1.4176400900
C  4.3788003922 -0.5314900279 -1.7123501301
C  2.6793003082 1.8359900713 0.0642200038
O  1.6816900969 2.4693303108 0.4064700603
H  0.8700500727 0.4574400485 0.5718100071
H  3.3586802483 -0.0731500089 0.7343100309
H  2.4226400852 0.0263500009 -2.2168600559
H  5.1444301605 -0.6617600322 -0.9536501169
H  4.6349501610 -0.8047900200 -2.7322001457
H  3.6428701878 2.3422200680 -0.1182300076
