12

O  0.9363700747 0.0776000023 0.0141300010
C  2.3580403328 0.0175000001 0.0157100018
C  2.9273900986 1.4328200817 0.0000000000
C  4.3713903427 1.4328200817 0.0000000000
C  5.5615506172 1.4328200817 0.0000000000
C  7.0974802971 1.4323701859 0.0000100000
N  8.2590808868 1.4264200926 0.0000700000
H  0.6109000444 -0.8394800425 0.0240200013
H  2.6822102070 -0.5451000333 -0.8667100668
H  2.6811101437 -0.5249100327 0.9110700488
H  2.5432202816 1.9849401712 0.8662400246
H  2.5432901382 1.9655401707 -0.8783400655
