13

N  1.0039800406 0.2924600244 0.0918800011
C  2.2837402821 0.1124700084 -0.3319800198
O  2.6554000378 -0.8912300467 -0.9210600257
C  3.2199003696 1.2080600262 0.0060500004
C  3.9361500740 1.9421401024 -1.1033201218
C  2.8923103809 2.6524102688 -0.2937700152
H  0.7113100290 1.1118100882 0.6018200517
H  0.3342900276 -0.4389600456 -0.1021700054
H  3.8123502731 1.0042800903 0.8928600550
H  3.6986303329 1.6744501591 -2.1275701523
H  4.9763407707 2.2021701336 -0.9450700879
H  3.2242801189 3.4037501812 0.4135800302
H  1.9576901197 2.8902802467 -0.7891400456
