14

O  2.4510602951 -0.3893900216 -1.5083000660
C  2.3901801109 0.0772700012 -0.1648500115
C  3.3025500774 1.2750802040 -0.0172400009
C  3.4266302586 1.7571802139 1.4064800739
O  3.4800703526 3.1854503155 1.3190901279
N  2.8039302826 3.5659203529 0.1338300109
C  2.7103800774 2.5061001778 -0.5944500566
H  1.8829301596 -1.1782901287 -1.5683901310
H  2.7140402794 -0.7380600572 0.4902600348
H  1.3474900723 0.3245000243 0.0628900006
H  4.2729806900 1.1166700125 -0.4991200268
H  4.3371105194 1.3879500628 1.8871401548
H  2.5668303967 1.4858101606 2.0294001102
H  2.2720601559 2.5054001808 -1.6029201746
