15

C  0.8275800347 0.0760300085 0.1199200153
C  2.1598999500 0.1463400126 0.2396500260
C  3.0232403278 1.3664200306 0.1250700057
C  2.3552401066 2.7271602154 0.1373500079
O  3.4019804001 3.6055800915 0.5513100624
C  4.1964502335 2.8060803413 1.4295101166
O  3.8808202744 1.4209501743 1.2723301649
H  0.3171800375 -0.8773000240 0.2261200100
H  0.2090600133 0.9443500638 -0.0832500011
H  2.7041101456 -0.7766500711 0.4380300343
H  3.6731803417 1.2705701590 -0.7536300421
H  1.5515601635 2.7985901833 0.8790200949
H  1.9695401192 3.0275702477 -0.8407000899
H  5.2546300888 2.9676103592 1.2038201094
H  4.0031704903 3.0999901295 2.4656503201
