13

O  1.1696701050 -0.0480900034 0.5149200559
C  2.3199203014 0.0164300017 0.1315800101
C  3.1714000702 1.2465300560 0.0458500013
C  4.3046002388 0.7906301022 -0.8743900657
C  4.5386705399 -0.6958400607 -0.6018200517
C  3.1607902050 -1.1768600941 -0.2602300346
O  2.7795202732 -2.3287200928 -0.2258000225
H  3.5432403088 1.4938400984 1.0443000793
H  2.6173300743 2.0852103233 -0.3808300197
H  3.9984104633 0.9237700701 -1.9196901321
H  5.2141604424 1.3803200722 -0.7224300504
H  4.9326405525 -1.2100100517 -1.4810200930
H  5.1933603287 -0.8446500897 0.2615900040
