14

C  0.4242700338 1.4181300402 0.2651100457
C  1.3710401058 0.3292300105 -0.2071300149
N  0.9219501019 -0.9247700572 0.3856400251
N  -0.3448300362 -1.3581701517 0.1829100102
C  -1.2518901825 -0.4439400136 0.0123500014
C  -1.0114700794 1.0429000854 -0.0566100031
H  0.6781800389 2.3783402443 -0.1983100176
H  0.5305500627 1.5524001122 1.3495401144
H  2.3911502361 0.5511200428 0.1199200153
H  1.3753900528 0.2550300062 -1.3005801439
H  1.5896201134 -1.6771700382 0.2041900158
H  -2.2914900780 -0.7772700787 -0.1409900188
H  -1.2702101469 1.3604800701 -1.0733001232
H  -1.7074701786 1.5434200764 0.6245400310
