17

C  2.5522403717 -1.0849200487 0.7916000485
C  2.7644302845 -0.0145700006 -0.2650800049
N  3.6561903954 1.0077700615 0.2849400342
C  3.9241802692 1.9428901672 -0.5577100515
N  4.7295503616 3.0068302155 -0.2686100304
O  5.4669108391 3.4329202175 -1.3776900768
C  5.6416602135 4.8401308060 -1.2330600023
H  1.8800101280 -1.8644502163 0.4191500545
H  2.1135101318 -0.6567800045 1.6990901232
H  3.5020902157 -1.5536401272 1.0692499876
H  1.7962901592 0.4234100282 -0.5351999998
H  3.2040002346 -0.4725700617 -1.1591601372
H  3.5162103176 1.9707201719 -1.5845800638
H  5.2894201279 2.8369300365 0.5648300052
H  6.2073702812 5.2043604851 -2.0946803093
H  6.2091903687 5.0649204254 -0.3237999976
H  4.6722202301 5.3486504555 -1.2122300863
