17

C  1.0319800377 -0.0032800003 -0.1185000092
C  2.5616900921 -0.0660100058 -0.0145400008
C  2.9350700378 -0.7804200649 1.2969200611
C  3.1537902355 -0.8577500582 -1.1880800724
C  3.1427602768 1.3521200418 0.0053200005
O  2.8775701523 2.0810902119 -1.1032100916
O  3.7954404354 1.8203401566 0.9260900617
H  0.7039400935 0.4300800264 -1.0693501234
H  0.6084200144 0.6140000224 0.6821600199
H  0.5888400674 -1.0028201342 -0.0448000059
H  2.5382401943 -0.2456600219 2.1678900719
H  4.0227003098 -0.8434100747 1.4196300507
H  2.5368101597 -1.8009701967 1.3221201897
H  2.8585302830 -0.4376100302 -2.1554801464
H  2.8204703331 -1.9015301466 -1.1697400808
H  4.2493205070 -0.8522200584 -1.1532400846
H  2.3508000374 1.6228001118 -1.7820801735
