16

N  3.0909001827 -1.0574401617 -0.5325500369
C  2.4214403629 0.0967100039 0.0712500066
C  3.2468101978 1.3879201412 -0.0087600015
C  3.5033102036 1.8641201258 -1.4449700117
C  3.2799503803 3.3217101097 -1.3043701649
C  2.7437002659 3.5521004200 -0.1119500101
O  2.5475802422 2.4501502514 0.6912900805
H  2.4836800098 -1.8729400635 -0.4468700290
H  3.9307603836 -1.2795701027 0.0022300002
H  2.1947000027 -0.1250500083 1.1209501028
H  1.4521300793 0.2486900091 -0.4184800386
H  4.2034902573 1.2428600788 0.5124600530
H  2.7981300354 1.4410500526 -2.1679401398
H  4.5216903687 1.6261701584 -1.7656501532
H  3.4710602760 4.0619902611 -2.0653100014
H  2.4046502113 4.4859704971 0.3041800261
