14

O  0.9871200919 0.0406200029 0.0034400003
C  2.3962202072 0.0264000017 -0.0351900049
C  3.0167100430 1.0990700722 0.8593500853
N  4.3693199158 0.6286200285 1.2222000360
C  4.2104201317 -0.8257400393 1.4372401237
C  3.0146102905 -1.2022000551 0.5896700621
O  2.5871300697 -2.3393702507 0.4301100373
H  0.6970000863 -0.8424100876 -0.2973300219
H  2.7497301102 0.1118600070 -1.0681800842
H  2.4199702740 1.2491401434 1.7680901289
H  3.0624501705 2.0663101673 0.3479400277
H  4.9904503822 0.7748000622 0.4240200520
H  5.1016902924 -1.3671001196 1.1119500399
H  3.9896602631 -1.0312501192 2.4881000519
