12

N  1.0819201469 0.0702900067 0.1011600122
C  2.2422001362 0.0222400017 0.0934600085
C  3.6893002987 0.0375500023 0.0713100061
N  4.2881999016 -1.1080800295 -0.0968900025
C  5.7338404655 -0.7218700647 -0.0976200104
C  5.7816205025 0.8096100688 -0.2437900156
N  4.4447603226 1.1744301319 0.1675700247
H  6.1842403412 -1.0412800312 0.8489800692
H  6.2609200478 -1.2148001194 -0.9202800989
H  5.9474301338 1.0948101282 -1.2880101204
H  6.5509104729 1.2641301155 0.3858600259
H  4.0467305183 2.0328800678 -0.1969400197
