15

C  0.9961100817 -0.0005300001 0.1660400033
C  2.4983601570 -0.0140200015 -0.0648400038
C  2.9647502899 -1.2222499847 -0.8836100101
C  3.5285604000 -0.6412700415 -2.1423699856
C  3.5209400654 0.6906700134 -2.1938700676
C  2.9168503284 1.1445800066 -0.9344200492
O  2.7727301121 2.3267002106 -0.6626900434
H  0.6981300712 0.8929600716 0.7252200842
H  0.6813900471 -0.8804000616 0.7362000942
H  0.4446500242 0.0096800001 -0.7812100649
H  3.0391001701 0.0337600037 0.8867100477
H  2.1501100063 -1.9190301895 -1.1062301397
H  3.7440004349 -1.7749501467 -0.3469300270
H  3.9150202274 -1.2654000521 -2.9393002987
H  3.8650503159 1.3498401642 -2.9714603424
