16

C  1.0538101196 0.0586200058 -0.1337200105
C  2.5298902988 0.1922100186 -0.0165100023
O  3.2693800926 -0.3859200180 -1.1004000902
C  3.3874101639 1.0375400782 -0.9441200495
C  2.7973902225 1.8192000389 -2.0761101246
C  4.7343502045 1.4821101427 -0.4631100595
H  0.5593100190 0.8220500946 0.4752700329
H  0.7393900156 -0.9231700301 0.2357600182
H  0.6926100850 0.1540800184 -1.1614500284
H  2.8782703876 0.0022100003 0.9909901023
H  1.9703001976 1.2965700626 -2.5651102066
H  3.5540504456 2.0106301308 -2.8445303440
H  2.4277203083 2.7839901447 -1.7151501179
H  5.1181502342 0.8367500901 0.3342500329
H  4.6776704788 2.5028502941 -0.0716400072
H  5.4600205421 1.4675401449 -1.2827700377
