20

C  1.9590601921 3.0889902115 -1.8160401583
C  2.8116803169 1.9408701658 -1.3141901493
O  3.9328703880 2.4792902470 -0.6162400246
C  4.7591404915 1.4400700331 -0.0764400065
C  5.9523806572 2.0676002502 0.6563500762
N  5.4982004166 2.8284201622 1.8293801546
C  6.6043305397 3.5350701809 2.4568102360
H  1.0933401585 2.7175703049 -2.3714501858
H  2.5420103073 3.7474303246 -2.4680602551
H  1.6056802273 3.6999204159 -0.9791200757
H  3.1610701084 1.3387601376 -2.1605501175
H  2.2229602337 1.3075799942 -0.6414200664
H  5.1281204224 0.8132400513 -0.8958900571
H  4.1728506088 0.8181700110 0.6093400121
H  6.4802703857 2.7356402874 -0.0353500023
H  6.6380505562 1.2739599943 0.9728800654
H  4.7968206406 3.4997203350 1.5052300692
H  7.0736002922 4.2453303337 1.7686700821
H  7.3632903099 2.8343503475 2.8199002743
H  6.2359204292 4.0970602036 3.3204302788
