13

C  0.9918200970 -0.0082900003 0.0869800076
C  2.5200002193 0.0000000000 0.0000000000
C  2.9799702168 -0.7406800985 -1.2617001534
C  4.4167799950 -1.0448601246 -1.2137501240
N  5.5457406044 -1.3029901981 -1.1614400148
C  3.0020201206 1.3611700535 0.0000000000
N  3.3862302303 2.4461600780 0.0000000000
H  0.6468200684 0.5127800107 0.9875200987
H  0.6091499925 -1.0337901115 0.1279200017
H  0.5371700525 0.4889400601 -0.7779000401
H  2.9053304195 -0.5193800330 0.8872900605
H  2.7545900345 -0.1569600254 -2.1633200645
H  2.4341201782 -1.6881401539 -1.3540900946
