18

C  0.9781500697 -0.0001100000 0.0661200061
C  2.5038700104 0.0182700027 -0.0616500042
C  3.0394401550 -1.3191001415 -0.6187500358
O  2.6952102184 -1.4994300604 -1.9989001751
C  3.2114703655 -0.4216900468 -2.7884104252
C  2.6815202236 0.9344300628 -2.3003599644
N  2.9536702633 1.1737700701 -0.8700300455
H  0.6065700650 0.9583400488 0.4453400373
H  0.6663200259 -0.7765100598 0.7743400931
H  0.4788700342 -0.2065600157 -0.8859600425
H  2.9086101055 0.1496500075 0.9494900703
H  2.6210901737 -2.1628701687 -0.0590700060
H  4.1311402321 -1.3703700304 -0.5188200474
H  4.3071403503 -0.4495200515 -2.7609801292
H  2.9007601738 -0.5905100703 -3.8240201473
H  3.1380701065 1.7391101122 -2.8875102997
H  1.6011000872 0.9943400621 -2.4748702049
H  3.9641003609 1.2624301910 -0.7558300495
