17

C  1.1605100632 0.7610700130 0.7600600719
N  2.4396502972 1.4615601301 0.6954700351
C  3.2123603821 1.0228800774 -0.2367100120
N  4.4631304741 1.4878600836 -0.5534099936
C  5.2510604858 2.0626602173 0.5004900694
C  6.4693007469 1.3894101381 -0.1335700005
C  5.4662103653 0.5223400593 -0.8957101107
H  0.5307300091 1.0175800323 -0.0980800092
H  0.6310800910 1.0665001869 1.6677901745
H  1.2928000689 -0.3256300092 0.8055000305
H  2.8965103626 0.2062700242 -0.9136400819
H  5.0072703362 1.6885501146 1.5006201267
H  5.2489404678 3.1549801826 0.4871300459
H  7.0663805008 2.0507001877 -0.7710300684
H  7.1282806396 0.8558300734 0.5561000705
H  5.6285305023 0.4396000206 -1.9727802277
H  5.2956399918 -0.4660000205 -0.4550500512
