17

C  0.8915100694 -0.1744100153 0.1105000079
C  2.3741800785 0.0175000001 0.1616400033
C  3.0695500374 1.1603701115 -0.0068700006
C  2.4469301701 2.5147502422 -0.2297700197
C  4.5786104202 1.1576900482 0.0580800027
N  5.1511807442 1.5552800894 -1.2201700211
H  0.6557300687 -1.0067900419 -0.5605599880
H  0.3488200307 0.6988600492 -0.2568400204
H  0.5144000053 -0.4243700206 1.1067101955
H  2.9270601273 -0.9043300152 0.3421100378
H  1.3734000921 2.5332300663 -0.0288500022
H  2.6022703648 2.8432803154 -1.2622200251
H  2.9001903534 3.2537503242 0.4401100576
H  4.9648103714 0.1679700166 0.3276600242
H  4.9122605324 1.8496901989 0.8393400908
H  4.8543701172 0.8853100538 -1.9284602404
H  6.1648006439 1.4794901609 -1.1661100388
