14

C  0.8111200929 0.1465700120 -0.0079900008
C  2.2908899784 0.0336199999 -0.0008500001
C  3.2475202084 1.0269700289 0.0030100001
N  4.5591602325 0.5958900452 0.0096500004
C  4.5931501389 -0.7198600173 0.0104600005
C  5.8492002487 -1.5188201666 0.0167600010
S  3.0598304272 -1.4976601601 0.0031400004
H  0.4984800220 1.1959800720 -0.0000200000
H  0.3789900243 -0.3376900256 0.8742500544
H  0.3893900216 -0.3213100433 -0.9039101005
H  3.0449202061 2.0911900997 0.0013500000
H  5.6618404388 -2.5967600346 0.0276100021
H  6.4446306229 -1.2692700624 0.9003400207
H  6.4426603317 -1.2863501310 -0.8727700710
