12

O  2.5204601288 -0.6421000361 -1.3130000830
C  2.4063501358 -0.0954100117 -0.0015200000
C  2.9340102673 1.3045800924 -0.0178800020
N  2.1949002743 2.3830499649 0.1619200110
C  2.9895401001 3.5095002651 0.0958300084
C  4.3320603371 3.2812201977 -0.1104500070
S  4.6201000214 1.5970100164 -0.2296300232
H  2.0324501991 -1.4816801548 -1.3059600592
H  2.9652400017 -0.7242800593 0.6983800530
H  1.3501901627 -0.0972400010 0.2865000069
H  2.5339701176 4.4859204292 0.2079900205
H  5.1331801414 4.0009002686 -0.1937300116
