12

O  1.2817300558 -0.1684000194 0.6818100214
C  2.3936502934 -0.0563500039 0.1942900121
C  3.1201601028 1.2356702089 -0.0353900045
C  4.3983602524 0.8231200576 -0.7505100369
C  4.3616399765 -0.6759700775 -0.7351900339
O  5.2423706055 -1.4116901159 -1.1498801708
N  3.1828403473 -1.0813200474 -0.2071400136
H  3.3384602070 1.7061601877 0.9278800488
H  2.5161499977 1.9101600647 -0.6477800608
H  4.4049401283 1.1766201258 -1.7861602306
H  5.2867507935 1.1899501085 -0.2292600274
H  2.9175803661 -2.0507400036 -0.1221200079
