17

C  2.7541503906 -0.7198300958 0.6115900874
N  2.9794902802 0.2327600121 -0.4721000493
N  3.3259103298 1.5128201246 0.0316100046
C  2.2570302486 2.4390602112 0.3723000288
C  4.6274504662 2.0049800873 -0.1046900079
C  5.6654005051 1.0299201012 -0.6056900620
O  4.9318804741 3.1706302166 0.1556000113
H  2.5346202850 -1.7049901485 0.1892200112
H  1.9071701765 -0.4251800478 1.2392101288
H  3.6433501244 -0.8200600743 1.2423601151
H  2.1348500252 0.3151900172 -1.0418400764
H  1.3772500753 1.8965301514 0.7289300561
H  1.9997900724 3.0178003311 -0.5198200345
H  2.5950102806 3.1258101463 1.1538900137
H  5.6696400642 0.1215900108 0.0021000002
H  6.6560206413 1.4885401726 -0.5298300385
H  5.4744400978 0.7872200608 -1.6544501781
