17

C  0.9812700748 -0.0515700057 0.0897000059
C  2.4885401726 0.0675300062 -0.0061200005
C  3.1669802666 1.1181600094 0.8983400464
C  4.1894903183 0.0087500000 1.2185400724
C  5.4644904137 -0.0183900017 0.3882500231
N  3.1856102943 -0.9835901260 0.7690300941
H  0.6255500317 -0.9291600585 -0.4595900178
H  0.5012400150 0.8302301168 -0.3469500244
H  0.6406100392 -0.1386000067 1.1268600225
H  2.8253800869 0.1239600107 -1.0503801107
H  2.5719802380 1.4303401709 1.7645502090
H  3.5522501469 2.0077102184 0.3924500346
H  4.4242405891 -0.0695300028 2.2865600586
H  5.2659106255 0.0381600037 -0.6875400543
H  6.0314302444 -0.9359800816 0.5801200271
H  6.1061501503 0.8290600777 0.6523100138
H  3.5503001213 -1.7552001476 0.2133700252
