18

C  1.0157700777 -0.2749600112 0.7782700658
C  2.4780101776 -0.1234300062 1.1847600937
N  3.0439901352 1.2038000822 0.8742001057
C  2.3840401173 2.2604701519 1.6539101601
C  4.4968304634 1.1860301495 1.1601400375
C  5.1613502502 2.4252803326 0.5988000035
O  5.9341702461 3.1308202744 1.2426400185
H  0.7065000534 -1.3198801279 0.8874200583
H  0.8628400564 0.0121900002 -0.2670900226
H  0.3533000350 0.3274600208 1.4070001841
H  3.0402603149 -0.8853900433 0.6297500134
H  2.5877501965 -0.3585700095 2.2510802746
H  1.3266401291 2.3451201916 1.3844701052
H  2.8185701370 3.2424702644 1.4378601313
H  2.4566402435 2.0830101967 2.7327504158
H  4.9743304253 0.3388800323 0.6534400582
H  4.7027602196 1.1094599962 2.2341201305
H  4.9612302780 2.6334800720 -0.4660500288
