20

C  2.2836301327 -1.1933701038 -0.7419400215
C  1.9060702324 0.1257800013 -0.0821400061
C  3.1116602421 0.9651200771 0.2998300195
C  3.9082603455 0.4513100386 1.4726401567
N  3.8607401848 1.6391000748 -0.7726400495
C  3.0081000328 2.4711301327 0.0647900030
C  3.6355702877 3.4780001640 0.9662400484
H  1.3816300631 -1.7389401197 -1.0361800194
H  2.8539402485 -1.8326901197 -0.0623000041
H  2.8894901276 -1.0285201073 -1.6379401684
H  1.3078900576 -0.0738800094 0.8155900836
H  1.2537701130 0.6799900532 -0.7693600655
H  4.8285503387 1.0199501514 1.6409201622
H  4.2053503990 -0.5907000303 1.3188700676
H  3.3072600365 0.5030400157 2.3865404129
H  3.4299602509 1.4734200239 -1.6834100485
H  2.1052701473 2.8607401848 -0.3927600384
H  4.6761703491 3.2432100773 1.2125700712
H  3.0684301853 3.5526101589 1.8993000984
H  3.6267902851 4.4633302689 0.4878900349
