19

C  0.6443400383 0.4734700620 -0.9980300665
C  1.8734601736 -0.2589600384 -0.4800900221
C  3.0292100906 0.7110900879 -0.2210100144
C  4.2629899979 0.0138300005 0.3075500429
C  4.7328801155 0.2734700143 1.5383400917
O  4.8275799751 -0.8503400683 -0.6062600613
C  6.0207104683 -1.5306202173 -0.2337200195
H  -0.1643200070 -0.2360300124 -1.1994800568
H  0.8678600788 1.0065600872 -1.9277901649
H  0.2828700244 1.2005201578 -0.2637100220
H  2.1708099842 -1.0163600445 -1.2152200937
H  1.6128801107 -0.7902800441 0.4431400299
H  2.6968603134 1.4863700867 0.4809600413
H  3.2926301956 1.2303301096 -1.1509799957
H  4.2274703979 0.9815700650 2.1889400482
H  5.6209602356 -0.1929200143 1.9456601143
H  6.3113508224 -2.1808102131 -1.0640901327
H  5.8561205864 -2.1622703075 0.6452100873
H  6.8358507156 -0.8206600547 -0.0599200055
