13

C  0.8715400696 0.0428400040 -0.0273900032
C  2.3616499901 -0.0125400014 -0.1316200048
C  3.1618802547 1.0216300488 0.1701500118
C  4.6463503838 0.9932301044 0.0753099993
O  5.2855505943 1.9972401857 0.3758400083
C  5.3697104454 -0.1838400066 -0.3615900278
C  5.9791402817 -1.1546301842 -0.7226500511
H  0.5188400745 -0.7197200656 0.6737000346
H  0.4223800302 -0.1544900090 -1.0055100918
H  0.5161000490 1.0176800489 0.3211800158
H  2.7750802040 -0.9584300518 -0.4734400213
H  2.7594003677 1.9701200724 0.5121600628
H  6.5305800438 -2.0089001656 -1.0412501097
