19

C  2.7449703217 -1.1204600334 -1.4135700464
C  2.9686801434 -0.5475400090 -0.0238800030
C  3.2741103172 0.9235001206 -0.0764300078
C  4.4948506355 1.4962801933 -0.0648100078
C  5.7833304405 0.7188700438 -0.0563000031
O  4.7356500626 2.8561201096 -0.0885800049
C  3.6286101341 3.7474200726 -0.1263200194
H  2.5008702278 -2.1859700680 -1.3492301702
H  3.6419904232 -1.0168100595 -2.0339901447
H  1.9178200960 -0.6142400503 -1.9237501621
H  3.7569103241 -1.1069501638 0.4900500476
H  2.0628702641 -0.6914200783 0.5779100657
H  2.3828201294 1.5440001488 -0.1110800058
H  5.6510105133 -0.3499200344 -0.2407700270
H  6.2876806259 0.8404300809 0.9080000520
H  6.4497604370 1.0943500996 -0.8403600454
H  4.0202202797 4.7690300941 -0.1419600099
H  3.0072400570 3.6394703388 0.7686800361
H  3.0380101204 3.6006302834 -1.0365500450
