13

C  0.9522800446 -0.1043900102 0.0122200008
C  2.4093101025 0.1426200122 -0.1689000130
C  3.1998901367 -0.6294500828 -1.1649501324
N  2.8516402245 0.7455800176 -1.3903201818
C  3.8177802563 1.7364501953 -1.3870700598
O  3.8323302269 2.7104301453 -2.1291100979
H  0.4571200609 0.8039500117 0.3697500229
H  0.7953100801 -0.8921400905 0.7555000782
H  0.4652200341 -0.4134100378 -0.9188100696
H  2.8915901184 0.4907200336 0.7361300588
H  2.7007403374 -1.3075799942 -1.8441001177
H  4.2471899986 -0.8248800635 -0.9776300788
H  4.6052203178 1.5705600977 -0.6316400766
