14

C  2.8251402378 -1.2676700354 0.4306000173
N  2.3596501350 0.0137900012 -0.0570700057
C  3.1310300827 1.1334500313 -0.0070600007
C  2.6593301296 2.4218301773 -0.1766700149
C  3.6794803143 3.4126901627 -0.0817500055
C  4.9128603935 2.8525803089 0.1531900167
S  4.8308105469 1.1501799822 0.2540500164
H  2.0425200462 -2.0185101032 0.2807900310
H  3.0466902256 -1.2253301144 1.5021201372
H  3.7116904259 -1.6088900566 -0.1138100028
H  1.3497400284 0.1255500019 -0.0400300026
H  1.6175200939 2.6475403309 -0.3643300235
H  3.5154502392 4.4781804085 -0.1846200228
H  5.8612403870 3.3589904308 0.2667700350
