19

C  1.0416800976 -0.0226500016 0.7922300696
C  2.4633002281 -0.4540800154 0.4657800198
C  3.3021104336 0.7236500382 -0.0403200015
C  4.7265205383 0.3188600242 -0.3602600396
C  5.7004904747 0.5172600746 0.5456600189
C  5.0653004646 -0.2577899992 -1.6538801193
C  4.2263402939 -0.5044400096 -2.6672103405
H  0.4668700397 -0.8714000583 1.1755001545
H  0.5336500406 0.3573800325 -0.0996100083
H  1.0346901417 0.7633700371 1.5539702177
H  2.4301502705 -1.2542800903 -0.2825400233
H  2.9222202301 -0.8777000308 1.3676701784
H  3.3073904514 1.5069100857 0.7302100062
H  2.8280801773 1.1898601055 -0.9125300646
H  5.4856400490 0.9500400424 1.5182200670
H  6.7350606918 0.2502700090 0.3534200191
H  6.1151604652 -0.5095500350 -1.8078801632
H  3.1640701294 -0.2941400409 -2.6228601933
H  4.6003203392 -0.9360401034 -3.5909802914
