15

C  0.9967500567 0.0257500038 0.0699900016
C  2.5100302696 -0.0363800004 0.0014400001
N  3.1698102951 0.9880600572 0.8502401114
C  4.1851601601 -0.0129900016 1.2418100834
C  3.2077302933 -1.1395801306 0.8412700891
O  3.7529401779 -2.2668101788 0.1243400052
H  0.5569700599 -0.8162100315 -0.4753300548
H  0.6235000491 0.9482800364 -0.3871200085
H  0.6286300421 -0.0160800014 1.1011500359
H  2.8587903976 -0.0010900000 -1.0393600464
H  2.5972502232 1.3039901257 1.6347801685
H  5.0989303589 0.0347900018 0.6376400590
H  4.4655103683 0.0129900016 2.2993001938
H  2.6060001850 -1.4900400639 1.6894801855
H  4.2763404846 -1.8794702291 -0.5990000367
