17

C  0.9439400434 -0.0213100016 0.0591900051
C  2.4569401741 -0.0010500001 -0.0121200010
C  3.1857104301 1.0299900770 0.8764600158
N  4.1453804970 -0.0167900007 1.2906200886
C  5.3451499939 0.0228200015 0.4537800252
C  3.2131402493 -1.0629100800 0.8162900209
H  0.5459100604 -0.8891100287 -0.4761600196
H  0.5259600282 0.8790301085 -0.4020600319
H  0.5870500207 -0.0685400069 1.0931299925
H  2.7957000732 0.0340600051 -1.0572700500
H  2.5869002342 1.4062100649 1.7152601480
H  3.6017100811 1.8956700563 0.3494000435
H  5.9739403725 -0.8488200307 0.6662600636
H  5.9371004105 0.9129700661 0.6939000487
H  5.1390004158 0.0353100039 -0.6230500937
H  3.6513702869 -1.8856501579 0.2406700253
H  2.6250202656 -1.5022600889 1.6316500902
