14

C  0.8284100890 0.0538700037 -0.2541400194
C  1.8848201036 0.3032700121 0.5287700295
C  2.8987300396 1.3042200804 0.1140100136
C  2.5182802677 2.7823703289 0.2911700308
O  3.7617902756 3.0567402840 0.9849600792
C  3.9950702190 1.6329901218 1.1383200884
H  0.0834100023 -0.6800300479 0.0398800038
H  0.6752400398 0.5664300919 -1.1992701292
H  2.0110301971 -0.2297100276 1.4670500755
H  3.3150300980 1.0861901045 -0.8780500293
H  1.6573801041 2.9988703728 0.9322300553
H  2.4374601841 3.3539602757 -0.6378100514
H  5.0097308159 1.3544200659 0.8385300636
H  3.8202702999 1.3200401068 2.1733200550
