13

N  1.0549100637 0.0401300006 -0.0564800054
N  2.4084901810 -0.0066200006 -0.0130600007
C  2.9571001530 1.1599301100 -0.0363299996
C  4.3904104233 1.1005600691 0.0000000000
C  5.5805702209 1.1005600691 0.0000000000
C  7.0245704651 1.1005600691 0.0000000000
O  7.5088205338 2.4342601299 -0.0649200082
H  0.6925600767 -0.9087500572 -0.1821000129
H  0.6710700393 0.3473000526 0.8400600553
H  2.4418802261 2.1310300827 -0.0901200101
H  7.4265809059 0.5487100482 -0.8544600606
H  7.4210004807 0.6427500248 0.9114300609
H  7.1107406616 2.8378202915 -0.8544900417
