16

C  1.9105100632 1.2211501598 -1.3822101355
O  3.1498003006 0.9536700845 -0.7246900201
C  4.0297803879 1.9960502386 -0.7506400347
O  3.8263301849 3.0736303329 -1.2902001143
C  5.2813000679 1.6116701365 -0.0007500001
C  6.2487602234 2.7857100964 0.0844100118
N  7.4459304810 2.4161601067 0.8397400975
H  1.2805800438 0.3319100440 -1.2910900116
H  2.0752100945 1.4227800369 -2.4452502728
H  1.3959101439 2.0597500801 -0.9023100734
H  5.7511305809 0.7698900700 -0.5219200253
H  4.9912300110 1.2931401730 1.0072700977
H  5.7692303658 3.6456103325 0.5662800670
H  6.5480403900 3.1023602486 -0.9212600589
H  7.1936607361 2.2027502060 1.8047100306
H  8.0724010468 3.2199702263 0.8858600855
