12

C  0.9152500629 -0.0224800017 0.0376300029
C  2.1162402630 -0.0067900009 0.0212500021
C  3.5623102188 0.0126900012 -0.0076300004
C  4.2557005882 1.0162301064 0.9234400392
O  5.1479907036 -0.0156100010 1.4226500988
C  4.2821402550 -1.0337201357 0.8535600901
H  -0.1504700035 -0.0362200029 0.0508400053
H  3.9627501965 0.0526600033 -1.0285600424
H  3.6535301208 1.4368600845 1.7358500957
H  4.8032603264 1.8173900843 0.4188800156
H  4.8497605324 -1.7842501402 0.2961000204
H  3.6917402744 -1.5240900517 1.6349000931
