19

C  1.2594901323 0.1649600118 0.1006700099
C  0.9047700167 -0.0127900010 1.5479902029
C  0.2080100179 -1.2661800385 2.0124702454
C  1.6372101307 -1.0110801458 2.4055700302
C  2.5558199883 0.9026300907 -0.0700699985
C  3.8145501614 0.1603900045 -0.4405900538
C  3.1518802643 1.0622600317 -1.4445900917
H  1.3003101349 -0.8064000607 -0.4105500281
H  0.4595000446 0.7391300797 -0.3834700286
H  0.6117500663 0.9242400527 2.0082700253
H  0.0166900009 -2.0560500622 1.2961500883
H  -0.5539000630 -1.1680700779 2.7766404152
H  1.8409801722 -0.7370100617 3.4351503849
H  2.4079403877 -1.6216101646 1.9488301277
H  2.6383101940 1.7530502081 0.5977600217
H  3.7607603073 -0.9085600376 -0.6099700332
H  4.7460799217 0.4905400574 0.0041100001
H  3.6370704174 2.0035700798 -1.6787400246
H  2.6465702057 0.6037700772 -2.2863101959
