18

C  1.1835501194 0.1294700056 0.1684600115
N  2.6050302982 -0.0314600021 -0.1405600160
C  2.7712202072 -0.7650900483 -1.3971501589
C  3.3047802448 1.2691700459 -0.1796100140
C  3.8220503330 1.8562101126 1.1057901382
C  4.7899403572 1.3296101093 0.0886900052
O  5.5308303833 2.3028001785 -0.6643800735
H  1.0560600758 0.6349000335 1.1317800283
H  0.6939400434 -0.8462900519 0.2561000288
H  0.6608500481 0.7146100402 -0.5963200331
H  2.2995600700 -1.7515400648 -1.3339301348
H  3.8330702782 -0.9355201125 -1.6046102047
H  2.3389201164 -0.2255100161 -2.2471201420
H  2.9208700657 1.9714500904 -0.9173200727
H  3.6987602711 1.2831200361 2.0178201199
H  3.7349503040 2.9253203869 1.2453600168
H  5.2945404053 0.3958100379 0.3178099990
H  5.1626801491 3.1976602077 -0.5769000649
