10

O  1.0164901018 -0.1361300200 -0.0030600003
C  2.3215000629 0.0631000027 0.0019000001
C  3.1309001446 1.1738600731 0.0032100002
C  4.4612102509 0.6839100718 0.0094900010
C  4.3640604019 -0.6888700724 0.0115500009
O  3.0605201721 -1.0725500584 0.0069300001
H  0.6032300591 0.7413700819 -0.0063400003
H  2.8126702309 2.2054200172 0.0000500000
H  5.3773603439 1.2572801113 0.0121900002
H  5.0857901573 -1.4937601089 0.0159200020
