20

C  0.9711400867 -0.0607600026 -0.0004800000
C  2.4794402122 -0.1472800076 -0.1667900085
C  3.1678602695 1.1467601061 0.2656900287
C  4.6505103111 1.0608600378 0.0662200078
N  5.5513005257 1.7870402336 0.9617300630
C  5.5241804123 0.3300800323 1.0573800802
C  6.6990504265 -0.4511700571 0.5813400745
H  0.5023200512 -1.0043101311 -0.2973400354
H  0.5536700487 0.7368900776 -0.6229400635
H  0.7018000484 0.1389800012 1.0415101051
H  2.7180101871 -0.3672000170 -1.2142601013
H  2.8600900173 -0.9873300791 0.4267500341
H  2.9251501560 1.3562800884 1.3149200678
H  2.7825500965 1.9870301485 -0.3243900239
H  4.9342203140 1.0550000668 -0.9804700613
H  5.0434904099 2.2105000019 1.7402200699
H  5.0706605911 -0.0973600075 1.9432201385
H  7.2400507927 0.0588300042 -0.2230600268
H  6.3733606339 -1.4265600443 0.2059300095
H  7.3986105919 -0.6211200356 1.4060401917
