17

C  -1.2596200705 -0.7728300691 -0.5155000091
C  -1.2237700224 0.7633300424 -0.5358200669
C  0.0121700009 1.0634200573 0.3195700347
C  -0.0192600023 -0.0327100009 1.3696501255
C  -0.0154000008 -1.1278600693 0.3158700168
C  1.2255901098 -0.7210500240 -0.4767100513
O  1.1686601639 0.7242900133 -0.4830400348
H  -1.2270300388 -1.1980401278 -1.5235701799
H  -2.1730799675 -1.1239701509 -0.0225800015
H  -2.1340901852 1.1728100777 -0.0862300023
H  -1.1220201254 1.1415100098 -1.5580101013
H  0.0768100098 2.0900001526 0.6856700778
H  -0.9162400961 -0.0186800007 1.9962801933
H  0.8796000481 -0.0537000038 1.9947601557
H  -0.0034200002 -2.1569001675 0.6790300608
H  2.1518399715 -1.0224400759 0.0243600011
H  1.2315400839 -1.0928300619 -1.5054801702
