13

C  1.3402101994 -0.3447300196 0.0038000003
O  2.6920003891 0.0689900070 0.0428900011
S  2.9799003601 1.6693701744 -0.0505500063
O  2.5373301506 2.1285302639 -1.3517901897
O  2.4835901260 2.2797303200 1.1661200523
C  4.7133603096 1.6388001442 0.0102800010
C  5.4271306992 1.2127201557 -1.0411200523
H  1.3072700500 -1.4332300425 0.0993100032
H  0.8810800314 -0.0644900054 -0.9485700727
H  0.7788800597 0.0950400084 0.8334400654
H  5.1753106117 1.9769301414 0.9262800813
H  4.9507803917 0.8795700669 -1.9597301483
H  6.5113306046 1.1952199936 -1.0037699938
