22

C  1.9232901335 -1.3480100632 0.2604200244
C  3.1802704334 -0.7565900683 -0.3845100105
C  2.8814702034 -0.3564700186 -1.8310102224
C  3.6853404045 0.4383000433 0.4559600055
N  4.8938803673 1.0953301191 -0.0728200078
C  5.1522002220 2.3355901241 0.6634200811
C  6.0692205429 0.2256000191 0.0000600000
H  2.1302902699 -1.6766101122 1.2843601704
H  1.5693001747 -2.2174601555 -0.3035200238
H  1.1109300852 -0.6142800450 0.2967200279
H  3.9399201870 -1.5470900536 -0.3945200443
H  2.1341700554 0.4430200160 -1.8752201796
H  2.4949302673 -1.2109700441 -2.3968601227
H  3.7841701508 -0.0073000006 -2.3421602249
H  3.8561804295 0.1103100106 1.4904501438
H  2.8734600544 1.1774901152 0.4953000247
H  4.3046603203 3.0241901875 0.5700900555
H  6.0222506523 2.8571903706 0.2483000159
H  5.3344206810 2.1537802219 1.7291601896
H  5.9559607506 -0.6508100629 -0.6454600692
H  6.2679805756 -0.1167600155 1.0221401453
H  6.9600706100 0.7515800595 -0.3629800379
