15

C  1.0607700348 -0.3267800212 0.3920600414
C  2.5229301453 -0.0179600008 0.3190700412
C  3.1390202045 1.1379899979 0.0000000000
C  2.4247000217 2.3659601212 -0.3241800368
C  2.9745702744 3.5289404392 -0.7034201026
C  4.5450205803 1.1379899979 0.0000000000
C  5.7351803780 1.1379899979 0.0000000000
H  0.8424800634 -1.1994601488 -0.2318200171
H  0.4152700305 0.4848200381 0.0530500039
H  0.7873400450 -0.5711700320 1.4230000973
H  3.1504802704 -0.8779600859 0.5586600304
H  1.3412201405 2.3457701206 -0.2494800091
H  4.0457201004 3.6641902924 -0.8112400770
H  2.3469202518 4.3878803253 -0.9199500680
H  6.7999706268 1.1385301352 0.0000700000
