12

C  1.0580401421 -0.0480100028 -0.0094000008
C  2.2574601173 0.0180000011 -0.0147900013
C  3.6834802628 0.0990100056 -0.0201600008
N  4.3248500824 -1.0144001245 -0.0886400044
O  5.6997404099 -0.6588100195 -0.0584500059
C  5.7841205597 0.7437700629 -0.3573100269
C  4.4709405899 1.3325300217 0.0934100077
H  -0.0048400001 -0.1212600097 -0.0042700004
H  5.9321603775 0.8560000658 -1.4371501207
H  6.6385602951 1.1826300621 0.1653600037
H  4.1132903099 2.1424000263 -0.5441000462
H  4.4964103699 1.6491800547 1.1398501396
