18

C  0.8185200691 0.2326000184 -0.0357500017
C  2.3451302052 0.0350600034 0.0095900008
C  2.7072603703 -0.7566800117 1.2764800787
N  2.7332201004 -0.7672800422 -1.1624400616
C  3.0273902416 1.4328200817 0.0000000000
C  4.4707903862 1.3976601362 0.0220900010
C  5.6604604721 1.3686900139 0.0402900018
H  0.5119500756 0.7749200463 -0.9372300506
H  0.4709900320 0.8072900772 0.8316400647
H  0.2876800299 -0.7267200351 -0.0276400018
H  2.4513802528 -0.1900500208 2.1793503761
H  3.7770602703 -0.9896800518 1.3215601444
H  2.1648101807 -1.7086300850 1.3212901354
H  2.5022301674 -0.2700400352 -2.0207800865
H  2.2110500336 -1.6415101290 -1.1801800728
H  2.6704802513 2.0111901760 0.8623600602
H  2.6988701820 1.9880101681 -0.8888700604
H  6.7251605988 1.3327801228 0.0520000048
