11

C  0.9413501024 -0.1022300050 0.0022900002
C  2.4279401302 0.0016200001 -0.2128800154
O  3.0976502895 -0.9634900689 -0.5788000226
C  3.1176102161 1.3000900745 0.0201500002
C  2.5163903236 2.4268302917 0.4197300375
H  0.4147600532 0.5797800422 -0.6702500582
H  0.6957100034 0.1154400110 1.0448900461
H  0.6148300767 -1.1226201057 -0.2207700163
H  4.1882600784 1.2774701118 -0.1618800014
H  1.4516401291 2.4955601692 0.6133100390
H  3.1008300781 3.3310403824 0.5649099946
