17

C  0.0380600058 -0.9834900498 0.2834600210
C  1.5198101997 -1.3597199917 0.2217600048
C  1.6691302061 -2.8098700047 -0.2415000200
N  2.1994502544 -0.4245600402 -0.6948100328
N  3.5953102112 -0.6273100376 -0.7017100453
C  4.4082002640 0.1079200059 0.1381300092
O  4.0249300003 0.9166900516 0.9743701220
H  -0.0944600031 0.0443400033 0.6410800219
H  -0.4997500479 -1.6441401243 0.9723700285
H  -0.4383200407 -1.0641800165 -0.6995600462
H  1.9391500950 -1.2599201202 1.2308402061
H  1.2825701237 -2.9482402802 -1.2578101158
H  1.1171901226 -3.4840900898 0.4225800037
H  2.7164602280 -3.1275701523 -0.2303200215
H  2.0388700962 0.5286600590 -0.3393800259
H  4.0028004646 -1.2025600672 -1.4345201254
H  5.4729905128 -0.1143600121 -0.0318400040
