17

C  0.5095100403 1.5523601770 1.4075100422
N  1.7973201275 1.0274300575 0.9625400305
C  2.5931003094 1.9293200970 0.5096600652
N  3.8379302025 1.6516001225 0.0320100039
C  4.8286805153 2.7116203308 -0.0584700070
C  5.8739800453 2.6812002659 -1.1372700930
C  4.7905101776 3.7193403244 -1.1722401381
H  -0.2515600026 0.7739900351 1.2937800884
H  0.1766000092 2.4198601246 0.8263601065
H  0.5579200387 1.8264101744 2.4658601284
H  2.3352103233 3.0041000843 0.4705600441
H  4.1266603470 0.6931900382 0.2030500174
H  5.1538105011 3.0610902309 0.9187501073
H  5.8336100578 1.8861501217 -1.8729001284
H  6.8768706322 3.0015301704 -0.8816500306
H  5.0582103729 4.7431507111 -0.9381200671
H  4.0211105347 3.6210300922 -1.9286701679
