15

C  2.0468502045 -0.3271500170 1.3913902044
C  2.4203302860 0.0855400041 -0.0199000016
C  3.0448703766 1.4647901058 -0.0222700015
C  2.1259901524 2.6591804028 0.0921900123
N  4.3414406776 1.5500100851 -0.0752300024
O  4.7660503387 2.8835101128 -0.0343600027
H  1.6120400429 -1.3316701651 1.3933401108
H  1.3149501085 0.3625000417 1.8257501125
H  2.9259603024 -0.3320900202 2.0448901653
H  1.5351501703 0.0936300084 -0.6634899974
H  3.1312603951 -0.6333400011 -0.4415700436
H  1.0816700459 2.3484001160 0.0065000006
H  2.3411502838 3.3739202023 -0.7058900595
H  2.2732200623 3.1370601654 1.0641701221
H  5.7362203598 2.7933502197 -0.0826100037
