11

C  1.0000001192 0.0000000000 0.0000000000
C  2.4440002441 0.0000000000 0.0000000000
C  3.6341602802 0.0000000000 0.0000000000
C  5.0781602859 0.0000000000 0.0000000000
O  5.5676403046 1.3350200653 -0.0245900024
H  0.6059700847 1.0208700895 0.0116800005
H  0.6059100032 -0.5205300450 0.8782500625
H  0.6059200764 -0.5002900362 -0.8899300694
H  5.4769802094 -0.5246800184 -0.8734200597
H  5.4762802124 -0.4873900414 0.8945100307
H  5.0759401321 1.7958701849 -0.7256500125
