17

O  1.0196599960 0.0447400063 -0.0246000029
C  2.4363601208 -0.0056900005 0.0031100002
C  2.9844801426 1.1248201132 0.8655200601
C  4.3892302513 0.6620600820 1.2189000845
C  4.2144103050 -0.8235300779 1.3718301058
C  5.0203003883 -1.6199802160 2.0845501423
C  2.9587101936 -1.2777301073 0.6752300262
H  0.7092700601 -0.7355000377 -0.5149600506
H  2.8143100739 0.0777500048 -1.0235800743
H  2.3737802505 1.2578001022 1.7682400942
H  2.9831402302 2.0825800896 0.3348500133
H  5.0775003433 0.8711500168 0.3927500248
H  4.7575602531 1.1470700502 2.1269402504
H  4.8202900887 -2.6822700500 2.1830601692
H  5.8958706856 -1.2269701958 2.5916700363
H  3.1645801067 -2.0492701530 -0.0730700120
H  2.2330200672 -1.6727501154 1.3946000338
