19

C  2.5817601681 -1.1043601036 1.1802600622
C  3.1772201061 -0.4403200448 -0.0516200066
C  3.0894002914 1.0560101271 0.0350900032
C  4.1559500694 1.8717602491 0.0070400005
C  4.0752902031 3.3694102764 0.0799700022
C  4.8058004379 3.8932402134 1.2822700739
C  5.8541607857 4.7246103287 1.2282000780
H  2.6516702175 -2.1932802200 1.0933300257
H  1.5250101089 -0.8428800702 1.2996801138
H  3.1129901409 -0.8019201159 2.0887901783
H  2.6333701611 -0.7734500170 -0.9430800676
H  4.2170305252 -0.7671800256 -0.1700800061
H  2.0899002552 1.4791700840 0.1150700077
H  5.1549901962 1.4494401217 -0.0848200098
H  3.0325002670 3.7041902542 0.1331300139
H  4.4939303398 3.7858803272 -0.8439900279
H  4.4374604225 3.5713102818 2.2547101974
H  6.2553806305 5.0776600838 0.2831400335
H  6.3359303474 5.0701804161 2.1378500462
