14

N  3.5966603756 -1.0692400932 -2.3644900322
C  3.5959303379 -0.5949800611 -1.3157300949
C  3.5950102806 0.0000000000 0.0000000000
C  4.3637404442 1.3128901720 -0.0019500001
C  3.6434602737 2.5154500008 -0.6325900555
O  3.2895402908 3.0242402554 0.6780200005
C  4.2383599281 2.1213500500 1.2963701487
H  4.0594005585 -0.6900200844 0.7142500877
H  2.5637602806 0.1535700113 0.3399200141
H  5.4040603638 1.1999700069 -0.3312700391
H  2.7571902275 2.2955801487 -1.2340700626
H  4.2871603966 3.2204701900 -1.1684300900
H  5.1431307793 2.6535401344 1.6080801487
H  3.8049104214 1.5998201370 2.1543502808
