14

C  0.2224900275 0.6380500197 0.7935100794
C  1.1161000729 0.0728600100 -0.2659600079
N  2.3458499908 -0.2307100147 0.0022600000
N  3.0243604183 -0.7267700434 -1.0625300407
C  4.4048104286 -1.1631600857 -0.7918900251
C  5.0575704575 -1.6971901655 -2.0004301071
N  5.5761804581 -2.0958101749 -2.9614801407
H  -0.6398600936 -0.0218900014 0.9175300598
H  -0.1319200099 1.6199501753 0.4697100222
H  0.7525400519 0.7334600687 1.7442101240
H  0.6701400280 -0.0695300028 -1.2674901485
H  3.0374302864 -0.0655600056 -1.8446601629
H  4.3940806389 -1.9363301992 -0.0153800016
H  4.9860301018 -0.3165200353 -0.4088700414
