17

C  0.9103301167 -0.0569700077 0.2955300212
C  2.4002702236 -0.0514900014 -0.0276200008
C  2.8202202320 1.2671501637 -0.6755300760
C  4.0168905258 1.1942301989 -1.6168401241
N  4.6191506386 -0.1211800054 -1.8304600716
C  3.9245104790 -1.1466900110 -1.5129600763
N  2.7052402496 -1.1589900255 -0.9087900519
H  0.6474000216 0.7778100967 0.9548700452
H  0.6214100718 -0.9893900752 0.7942500114
H  0.3062700033 0.0251500029 -0.6155300140
H  2.9628901482 -0.1857500225 0.9054000378
H  3.0282201767 1.9934002161 0.1188600063
H  1.9741901159 1.7002701759 -1.2315200567
H  4.7959303856 1.8708901405 -1.2537400723
H  3.7180304527 1.5878400803 -2.5979101658
H  4.3123002052 -2.1576101780 -1.7115701437
H  2.4159901142 -2.0648100376 -0.5511500239
