16

C  0.9599400759 0.0213600006 0.2041000128
C  2.4493501186 -0.0576200038 -0.0176300015
C  3.0213100910 -1.2254000902 -0.3672300279
C  3.2750303745 1.2021200657 0.1668900102
N  2.8627800941 2.2468302250 -0.7604500651
C  3.1766500473 1.6965401173 1.5500000715
C  3.1028602123 2.1054701805 2.6766502857
H  0.4974200428 0.7153100371 -0.5045199990
H  0.7320700288 0.3552900255 1.2209501266
H  0.4751000404 -0.9516700506 0.0673099980
H  2.4363701344 -2.1311900616 -0.4970700443
H  4.0922904015 -1.3096201420 -0.5285800695
H  4.3304200172 0.9851601124 -0.0397800021
H  1.9243701696 2.5526502132 -0.5172400475
H  2.8113100529 1.8464001417 -1.6938201189
H  3.0403800011 2.4726400375 3.6752703190
