19

C  1.4042800665 -0.2559500039 -0.8684800863
O  2.8066301346 -0.0277600009 -0.8561200500
C  3.1245100498 1.2495601177 -0.2996500432
C  4.6403203011 1.4036000967 -0.2932300270
C  5.0783805847 2.7812802792 0.1804500222
O  4.6049804688 3.0020902157 1.5071201324
C  5.0240802765 4.2630805969 2.0119602680
H  1.2203700542 -1.2481801510 -1.2908000946
H  0.9010900259 0.4881700277 -1.4931501150
H  1.0011200905 -0.2297300249 0.1485100091
H  2.7264802456 1.3121401072 0.7197700739
H  2.6654400826 2.0338301659 -0.9120001197
H  5.0374503136 1.2116700411 -1.2978501320
H  5.0659503937 0.6304100752 0.3598200381
H  4.6794204712 3.5550901890 -0.4851100445
H  6.1732106209 2.8385801315 0.1688500196
H  4.6263504028 4.3783302307 3.0237503052
H  4.6347904205 5.0740103722 1.3886200190
H  6.1163406372 4.3133602142 2.0579102039
