16

N  1.0553500652 0.0359200016 0.6070100665
C  2.4193603992 0.0009200001 0.0611900054
C  2.7093203068 1.1924600601 -0.8665100336
O  4.0525903702 1.1848601103 -1.3751701117
C  4.4812402725 -0.0357500017 -1.8216601610
C  3.8811104298 -1.2060401440 -1.5754901171
C  2.6663801670 -1.3072000742 -0.7098700404
H  0.9329500794 0.8800100684 1.1659700871
H  0.9232800603 -0.7498000264 1.2431300879
H  3.1271202564 0.0403300002 0.8996800780
H  2.5808200836 2.1336300373 -0.3201700449
H  2.0153200626 1.2146401405 -1.7170600891
H  5.3927803040 0.0624200031 -2.3987801075
H  4.2899603844 -2.1220602989 -1.9948202372
H  1.8079102039 -1.5546801090 -1.3478401899
H  2.7897002697 -2.1312000751 0.0017800000
