16

C  3.5522902012 -1.2311700583 -2.3273003101
C  3.5892803669 -0.6749000549 -1.2757900953
C  3.6341602802 0.0000000000 0.0000000000
N  4.4734401703 1.1993801594 -0.0682600066
C  3.7444303036 2.3303401470 -0.7066700459
C  4.3437504768 3.2379503250 0.3829700053
C  4.4206404686 1.9430600405 1.2158901691
H  3.5281701088 -1.7248101234 -3.2710802555
H  4.0666203499 -0.6814100146 0.7433200479
H  2.6152303219 0.2218700051 0.3436100185
H  2.6485002041 2.2773501873 -0.6771300435
H  4.0605502129 2.5603501797 -1.7284901142
H  5.3206706047 3.6640801430 0.1258600056
H  3.6932704449 4.0252799988 0.7705500722
H  5.3139004707 1.8437601328 1.8395501375
H  3.5330502987 1.7697801590 1.8378701210
