17

C  1.5677601099 0.9545200467 1.7888201475
C  2.1912801266 0.7511700392 0.6219900250
C  3.1121501923 1.7411701679 -0.0312800035
C  4.4843802452 1.1649900675 -0.2304900140
C  5.5917506218 1.6479301453 0.3540700376
C  6.9007706642 1.0838199854 0.1321700066
C  8.0071506500 1.5548300743 0.7202800512
H  0.9094501138 0.1984600127 2.2063202858
H  1.7002000809 1.8715301752 2.3549702168
H  2.0203702450 -0.1845200211 0.0930400044
H  3.1602401733 2.6689000130 0.5524000525
H  2.7004802227 2.0106301308 -1.0109801292
H  4.5533905029 0.3152300119 -0.9059900641
H  5.5194406509 2.4989402294 1.0280201435
H  6.9834604263 0.2370200157 -0.5462100506
H  7.9838604927 2.3949601650 1.4065901041
H  8.9718513489 1.0983500481 0.5231100321
