16

C  1.6232101917 -0.6787200570 1.0765501261
C  2.3995501995 -0.2771400213 0.0625500083
C  3.0824601650 1.0607901812 0.0009600001
C  4.6062502861 0.9126501083 -0.0664900020
C  5.2882103920 2.2506799698 -0.1327600032
C  6.0574603081 2.6523501873 -1.1524300575
H  1.1507900953 -1.6562901735 1.0606701374
H  1.4389400482 -0.0478500053 1.9406801462
H  2.5473601818 -0.9439100623 -0.7848500609
H  2.8063702583 1.6738101244 0.8688200712
H  2.7196600437 1.5922701359 -0.8880600929
H  4.8819904327 0.2974600196 -0.9322800636
H  4.9690804482 0.3842900097 0.8238000274
H  5.1463904381 2.9177403450 0.7155200839
H  6.2352204323 2.0213801861 -2.0178501606
H  6.5299506187 3.6300401688 -1.1401600838
