16

C  1.2731900215 -0.0962600037 0.0838200003
C  2.7435202599 -0.0105800014 -0.1399600059
C  3.3384702206 -0.4229100347 -1.4659601450
N  3.2525603771 0.9852700830 -1.0786200762
C  4.5341405869 1.5705301762 -0.6672500968
C  5.1491904259 2.2667801380 -1.7727301121
C  5.6561203003 2.8406400681 -2.6838803291
H  0.9641600847 0.6295200586 0.8429600596
H  1.0058701038 -1.0957901478 0.4411900342
H  0.7006600499 0.1019300073 -0.8288800716
H  3.3077602386 -0.2097700089 0.7634600401
H  2.6745202541 -0.7257000804 -2.2669901848
H  4.3097105026 -0.9021700621 -1.4753900766
H  5.2327499390 0.8266400695 -0.2616000175
H  4.3399500847 2.2816100121 0.1448699981
H  6.1000103951 3.3546702862 -3.5046103001
