18

C  0.9139500260 -0.0217100028 0.1215500087
C  2.4316201210 -0.0057600006 -0.0273500029
C  2.8494901657 0.0216400027 -1.4981601238
C  3.1446702480 1.0595099926 0.8585500717
C  4.1984000206 -0.0073400005 1.2106901407
C  3.1640701294 -1.0833001137 0.8247500658
H  0.6117600799 -0.0415100008 1.1744400263
H  0.4837400317 -0.9041900635 -0.3634700477
H  0.4673200548 0.8681800365 -0.3346800208
H  3.9380202293 0.0344400033 -1.6150500774
H  2.4527702332 0.9117301106 -1.9980300665
H  2.4704701900 -0.8598900437 -2.0253601074
H  2.5629303455 1.3914500475 1.7273401022
H  3.5274600983 1.9434801340 0.3408299983
H  5.0810503960 0.0106900008 0.5614300370
H  4.5281805992 -0.0209200010 2.2525103092
H  3.5647001266 -1.9433702230 0.2802700102
H  2.5899801254 -1.4532601833 1.6827701330
