17

C  0.7615400553 2.1069102287 0.1930700094
C  2.1847603321 2.0960602760 0.7155000567
O  3.0341804028 1.5775501728 -0.3073800206
C  4.4002199173 1.5481901169 0.0893900096
C  5.0322504044 2.9129602909 -0.0562000051
N  5.4692807198 3.5578904152 0.9804000854
N  5.9952306747 4.7638902664 0.6685400605
H  0.0706700087 2.4817900658 0.9530100822
H  0.4512800276 1.0999801159 -0.1026900038
H  0.6843400598 2.7397201061 -0.6971800327
H  2.2486300468 1.4603700638 1.6056901217
H  2.4877800941 3.1153502464 0.9791900516
H  4.9264702797 0.8731300831 -0.5935200453
H  4.5102105141 1.1659901142 1.1094001532
H  5.0886502266 3.3208904266 -1.0816200972
H  6.4180402756 5.1760902405 1.5044801235
H  5.2662501335 5.4254007339 0.3874600232
