20

C  1.0160801411 -0.2273600101 -0.0768400058
C  2.5499103069 -0.2333300114 0.0340200029
C  2.9629602432 -1.0807601213 1.2456201315
N  3.1075603962 -0.8582800627 -1.1779600382
C  3.0561301708 1.2264901400 0.1572400182
C  4.5740003586 1.3934201002 0.2586900294
O  5.2247304916 0.9269900918 -0.9140800834
H  0.6788700819 0.3485700190 -0.9465001225
H  0.5610200167 0.2209800184 0.8138500452
H  0.6161500812 -1.2433501482 -0.1758100092
H  2.6192402840 -0.6220300198 2.1796102524
H  4.0496201515 -1.2011801004 1.3123401403
H  2.5307803154 -2.0873601437 1.1940701008
H  2.7340402603 -0.3826900125 -2.0040700436
H  2.7688202858 -1.8202201128 -1.2501001358
H  2.5990900993 1.6943300962 1.0385800600
H  2.7091002464 1.7938500643 -0.7173600793
H  4.9852199554 0.8647200465 1.1233301163
H  4.8219804764 2.4536902905 0.3754400313
H  4.7836403847 0.0789900050 -1.1441301107
