18

C  0.9938300848 -0.1325300038 0.0518800057
C  2.5252802372 -0.0046800002 -0.0081100008
C  2.9845402241 -0.7284000516 -1.2184400558
C  3.3524501324 -1.3196301460 -2.1970701218
N  2.9943401814 1.4017601013 -0.0299700033
C  2.4378402233 2.1960799694 1.0683401823
C  4.4609403610 1.4728701115 0.0326800011
H  0.5941300392 0.2202700078 1.0080400705
H  0.6842500567 -1.1795101166 -0.0536200032
H  0.5121600628 0.4330600202 -0.7546000481
H  2.9327301979 -0.5129100680 0.8765900731
H  3.6782202721 -1.8362401724 -3.0703303814
H  1.3566499949 2.3257200718 0.9578101039
H  2.8541100025 3.2105202675 1.0636301041
H  2.6436102390 1.7479600906 2.0470702648
H  4.9283103943 0.9912500381 -0.8322800994
H  4.8562202454 1.0102300644 0.9445000291
H  4.7959003448 2.5165402889 0.0068700006
