17

C  0.8800100684 -0.0381800048 -0.1575600207
C  2.2081999779 -0.0090200007 0.0284700021
C  2.9478602409 1.2767701149 0.3217600286
C  4.3346204758 1.2918301821 -0.3213700354
C  5.1480202675 0.0592200048 0.0786300078
C  4.3416905403 -1.2047001123 0.0100200009
C  3.0013701916 -1.2221300602 -0.0353100039
H  0.2849100232 0.8679701090 -0.1038600057
H  0.3483100235 -0.9615700841 -0.3651800156
H  2.3796002865 2.1446700096 -0.0343600027
H  3.0526802540 1.3843702078 1.4090900421
H  4.8739805222 2.2012102604 -0.0321500003
H  4.2294101715 1.3201500177 -1.4141100645
H  5.5301799774 0.1753900200 1.0996900797
H  6.0165801048 -0.0252100024 -0.5840500593
H  4.8889503479 -2.1433401108 -0.0155300014
H  2.4820201397 -2.1739602089 -0.1182100102
