18

C  1.4921200275 -0.1794500202 0.8970701098
N  2.8976001740 0.1845600158 0.7758000493
C  3.0950400829 1.5862101316 0.3487800360
C  2.5364403725 2.6026101112 1.3472200632
C  4.6089406013 1.8609001637 0.1287900060
N  5.2661805153 0.8194100857 -0.6742900610
H  1.4133201838 -1.2569400072 1.0769301653
H  0.9318300486 0.0476400033 -0.0162600018
H  1.0179400444 0.3193400204 1.7479701042
H  3.3102502823 -0.3940700293 0.0404400006
H  2.5919802189 1.7297900915 -0.6173900366
H  2.9473502636 2.4437601566 2.3499803543
H  1.4455701113 2.5463001728 1.4112901688
H  2.7881402969 3.6235404015 1.0393600464
H  5.1255407333 1.9270101786 1.0950900316
H  4.7332506180 2.8255903721 -0.3754400313
H  5.3056802750 -0.0253300015 -0.1018400043
H  6.2387003899 1.0881900787 -0.8183200359
