14

C  1.0084800720 -0.0182100032 -0.0019200002
N  2.4631700516 0.0127400011 0.0314500034
C  2.9607002735 1.3856801987 0.0000000000
C  4.4047007561 1.3856801987 0.0000000000
C  5.5948605537 1.3856801987 0.0000000000
C  7.1275105476 1.3859300613 -0.0008200001
C  8.3258209229 1.3858200312 -0.0010600002
H  0.6652500629 -1.0569601059 0.0289100017
H  0.6169100404 0.4381000400 -0.9169500470
H  0.5810200572 0.4950400293 0.8655600548
H  2.8316402435 -0.4891200662 -0.7756300569
H  2.5935502052 1.9353801012 0.8744200468
H  2.5923702717 1.9024401903 -0.8941600919
H  9.3915309906 1.3844000101 0.0002700000
