16

C  0.8590201139 0.0965800062 0.2185900211
C  2.3102002144 -0.2633600235 0.0494900048
C  2.7264301777 -1.5400102139 0.0859200060
C  3.2733402252 0.8857500553 -0.1205800101
C  3.0273303986 1.5714401007 -1.4407600164
N  2.6114902496 2.7963902950 -1.4865200520
O  2.4770703316 3.1797702312 -2.8253602982
H  0.7338700294 0.7916300893 1.0555000305
H  0.2397400290 -0.7836900353 0.4235900342
H  0.4703400433 0.5694600344 -0.6893600225
H  2.0294702053 -2.3610301018 0.2276800126
H  3.7750303745 -1.8028200865 -0.0146700013
H  4.3121104240 0.5374000072 -0.1235700101
H  3.1612703800 1.5992401838 0.7026700974
H  3.2247703075 0.9872600436 -2.3573901653
H  2.1703200340 4.1028604507 -2.7487001419
