18

C  3.5241203308 -1.0080101490 -0.2936600447
C  2.9309802055 0.0184500013 0.6633100510
C  3.1973903179 1.4619801044 0.2200600207
C  2.4438202381 2.4492402077 1.1072200537
C  4.6728601456 1.7740502357 0.3161000311
N  5.3380503654 2.1483500004 -0.7287500501
O  6.6688804626 2.3689203262 -0.3604000211
H  3.2595901489 -2.0197100639 0.0297700018
H  4.6154804230 -0.9416300654 -0.3241500258
H  3.1404700279 -0.8654100895 -1.3083400726
H  3.3387901783 -0.1558500081 1.6674901247
H  1.8487302065 -0.1508000046 0.7233901024
H  2.8701300621 1.5981501341 -0.8172200918
H  2.7490003109 2.3588702679 2.1559000015
H  1.3639801741 2.2802600861 1.0500100851
H  2.6422603130 3.4806404114 0.7956100106
H  5.1522302628 1.6722600460 1.3065100908
H  7.0766706467 2.6396501064 -1.2044000626
