19

C  0.9699400663 -0.0362700000 0.0458800010
C  2.5063803196 0.0001000000 0.0045400001
C  3.0557703972 -0.6446300149 1.2900000811
C  2.9925003052 -0.7935800552 -1.2280901670
O  4.4118704796 -0.8633900881 -1.3001800776
C  2.9626700878 1.4718201160 -0.0869800076
O  4.3811903000 1.5806101561 -0.1772000045
H  0.5382300019 0.4112000167 -0.8571500778
H  0.5830400586 0.5169900656 0.9095900655
H  0.5988500118 -1.0654100180 0.1168200150
H  2.7183701992 -0.0982200056 2.1785001755
H  4.1505703926 -0.6613200307 1.3088501692
H  2.7103002071 -1.6805601120 1.3874901533
H  2.6303303242 -0.3369800448 -2.1566402912
H  2.6165401936 -1.8223201036 -1.2005400658
H  4.7381401062 0.0557000041 -1.1952999830
H  2.6253702641 2.0539500713 0.7783600092
H  2.5455901623 1.9458200932 -0.9828100801
H  4.7351703644 1.4828900099 0.7257800698
