16

N  1.0843300819 -0.0002000000 0.0067500002
C  2.5519402027 -0.0009800000 0.0732700080
C  3.1840400696 -0.9616100788 -0.9825500250
C  4.6882400513 -0.7520300746 -0.8461201191
C  4.6856503487 0.7823700905 -0.8325600624
C  3.1803600788 0.9884601235 -0.9599100351
O  2.7664403915 0.0238600019 -2.0281801224
H  0.6348000765 0.7164900899 0.5715000033
H  0.6492500901 -0.8885700703 0.2432900071
H  2.9686203003 -0.0227900017 1.0834600925
H  2.7647900581 -1.9587601423 -1.1177500486
H  5.0905804634 -1.1755601168 0.0788300112
H  5.2414903641 -1.1509201527 -1.7015701532
H  5.2322406769 1.1976801157 -1.6837100983
H  5.0910606384 1.1913701296 0.0976900086
H  2.7560501099 1.9861901999 -1.0732300282
