14

C  0.9337201118 -0.0356300026 -0.0021600001
C  2.4125802517 0.0650400072 -0.0030100001
C  3.2525603771 1.1502701044 -0.0014200001
O  2.8142902851 2.4160900116 0.0017000001
C  4.5867304802 0.7012900710 -0.0036500003
C  4.5347204208 -0.6756400466 -0.0066900006
N  3.2150404453 -1.0530700684 -0.0063000005
H  0.4667600095 0.9541500807 0.0109400013
H  0.5866200328 -0.5841000676 0.8794100285
H  0.5845400095 -0.5617600679 -0.8964400887
H  3.5717403889 3.0240702629 0.0022200001
H  5.4878306389 1.2974101305 -0.0031500002
H  5.3205304146 -1.4199501276 -0.0091700014
H  2.8812801838 -2.0082201958 -0.0081900004
