16

C  0.9901400805 -0.0515700057 0.0827500075
C  2.4967601299 0.0756300092 -0.0051800003
C  3.1674103737 1.1146901846 0.9168100953
C  4.1918001175 0.0062100003 1.2310701609
N  3.1953601837 -0.9829100370 0.7602200508
C  5.3853006363 -0.0241300017 0.4078200161
C  6.3731603622 -0.0510800034 -0.2768100202
H  0.6404000521 -0.9255900979 -0.4769800305
H  0.5077400208 0.8322400451 -0.3475500345
H  0.6443900466 -0.1505200118 1.1175900698
H  2.8377602100 0.1467200220 -1.0469400883
H  2.5676403046 1.4144200087 1.7850902081
H  3.5444202423 2.0159001350 0.4243900180
H  4.4197301865 -0.0865000114 2.2989001274
H  3.5836601257 -1.7328401804 0.1906700134
H  7.2478203773 -0.0755300000 -0.8843100667
