18

O  2.6539900303 3.5295803547 -0.4029700160
C  2.3174700737 2.1663002968 -0.6153600216
C  3.0440201759 1.2936501503 0.3993500471
C  4.5401606560 1.2681699991 0.1152100116
C  5.3831806183 2.4855301380 0.5604500771
N  6.4508404732 1.5394600630 0.9727600813
C  5.4115805626 0.4935300350 1.1269201040
H  2.1482303143 4.0529904366 -1.0483400822
H  2.5831902027 1.8933202028 -1.6414800882
H  1.2352800369 2.0607202053 -0.4896600544
H  2.6490201950 0.2731900215 0.3362600505
H  2.8552200794 1.6623201370 1.4146801233
H  4.7539205551 0.9617201090 -0.9196900725
H  4.9710102081 3.0599102974 1.3986800909
H  5.6702504158 3.1799502373 -0.2343000174
H  7.1106905937 1.3392901421 0.2207500190
H  5.7207002640 -0.5082600713 0.8146000504
H  5.0068607330 0.4339600503 2.1442801952
