19

C  2.4074201584 -0.5328700542 -1.5345401764
C  2.4343702793 -0.0078700008 -0.1082600057
C  3.3977501392 1.1626101732 0.0167500004
O  2.8835301399 2.3515202999 -0.6481300592
C  3.1918504238 3.1545803547 0.5190600753
C  3.4001202583 1.8990701437 1.3732500076
C  4.6775503159 1.8301601410 2.1828200817
H  1.7270101309 -1.3862501383 -1.6136100292
H  3.4036104679 -0.8585700393 -1.8519902229
H  2.0690402985 0.2392900288 -2.2336301804
H  2.7480103970 -0.8146600723 0.5636200309
H  1.4221401215 0.2878100276 0.1898900270
H  4.4015803337 0.9249401093 -0.3615500033
H  4.0745301247 3.7779002190 0.3435200155
H  2.3471302986 3.7834701538 0.8138800859
H  2.5240902901 1.6711400747 1.9935801029
H  5.5570607185 2.0695002079 1.5759401321
H  4.8160905838 0.8263900280 2.5970802307
H  4.6416206360 2.5364801884 3.0182902813
