19

C  0.8810500503 -0.1004500091 -0.0199800022
C  2.3978900909 -0.0841000080 0.0892000049
C  2.9562602043 1.3263601065 -0.1020600051
C  4.4557204247 1.3372900486 -0.0067300005
C  5.1365704536 2.0117101669 0.9316200614
C  6.5778603554 2.0154802799 1.0006500483
C  7.2603502274 2.6847801208 1.9360201359
H  0.5018700361 -1.1172701120 0.1214500070
H  0.5551300645 0.2499800324 -1.0044100285
H  0.4260500371 0.5407800078 0.7415600419
H  2.8182902336 -0.7617100477 -0.6640100479
H  2.6908802986 -0.4738800228 1.0717700720
H  2.5146701336 2.0014503002 0.6412000656
H  2.6690201759 1.7094000578 -1.0886400938
H  4.9892706871 0.7647000551 -0.7627300620
H  4.5975303650 2.5861001015 1.6824702024
H  7.1253504753 1.4450800419 0.2527500391
H  6.7659606934 3.2694802284 2.7056403160
H  8.3454704285 2.6596102715 1.9496601820
