15

C  0.9289000630 0.0885600075 0.0229000002
C  2.2434902191 0.1475100070 -0.2187200189
C  3.0242102146 1.4009001255 -0.1049800068
N  4.3251304626 1.3583900928 -0.2681700289
C  4.7722005844 2.7660400867 -0.0872500092
C  3.5091404915 3.6259002686 -0.1516700238
N  2.4903903008 2.6439301968 0.1324200034
H  0.4024000466 -0.8566200137 -0.0627700016
H  0.3515700102 0.9527301192 0.3296800256
H  2.8085703850 -0.7360100746 -0.4961800277
H  5.2656602859 2.8597903252 0.8870000243
H  5.4856805801 3.0477104187 -0.8676500916
H  3.3684401512 4.0373001099 -1.1569200754
H  3.5194602013 4.4408903122 0.5767400861
H  1.5669801235 2.8194601536 -0.2416000217
