14

C  1.0548900366 0.0004200000 0.1131300107
C  2.5396502018 0.0146500012 -0.0580400042
N  3.2283003330 -1.0588700771 -0.3017600179
O  4.5962300301 -0.6755200624 -0.3988300264
C  4.7087001801 0.7550300360 -0.2774500251
C  3.3422002792 1.2359300852 0.0274600014
C  2.9212002754 2.4684302807 0.3274400234
H  0.6728000641 -1.0193201303 0.0111700017
H  0.5899800062 0.6284100413 -0.6518100500
H  0.7911800146 0.3778200150 1.1046299934
H  5.0766706467 1.1494500637 -1.2284700871
H  5.4170002937 0.9796600938 0.5242100358
H  3.6184101105 3.2985801697 0.3693500161
H  1.8800802231 2.6845002174 0.5426700115
