18

C  2.3010501862 -0.4923800528 -1.3854300976
C  2.4898800850 0.0454400033 0.0257800035
O  3.2240102291 -0.9191600680 0.7864900827
C  3.2561402321 1.3691400290 -0.0048500001
C  2.5231003761 2.6217801571 -0.5460400581
C  3.2292702198 3.3551402092 0.6085700393
N  3.2840201855 2.0588500500 1.3184200525
H  1.7150502205 0.1967700124 -2.0013902187
H  1.7915802002 -1.4616100788 -1.3611100912
H  3.2669303417 -0.6539300680 -1.8775800467
H  1.5114001036 0.1656200141 0.5040600300
H  4.1101303101 -0.9952600598 0.3962700367
H  4.2613902092 1.2544201612 -0.4375200272
H  1.4307500124 2.5930101871 -0.4546200335
H  2.7938301563 2.9412801266 -1.5552101135
H  4.2146701813 3.7597703934 0.3496500254
H  2.6423602104 4.1297502518 1.1084001064
H  4.1186504364 1.8873401880 1.8752101660
