17

C  2.5043301582 -0.3059800267 -1.7040601969
C  2.7824602127 0.0694800019 -0.2554400265
N  3.3354902267 1.4267001152 -0.1202800125
C  2.3353199959 2.4928600788 -0.0697299987
C  4.6997904778 1.6660901308 -0.0890700072
N  5.0749406815 2.9328501225 0.2359100133
S  5.9300503731 0.5854200125 -0.4173200428
H  2.1068801880 -1.3241600990 -1.7601600885
H  3.4123301506 -0.2605000138 -2.3126902580
H  1.7699301243 0.3683100343 -2.1554701328
H  3.4661602974 -0.6607500315 0.1880800128
H  1.8564200401 0.0188900027 0.3293500543
H  1.8755701780 2.4854102135 0.9227600694
H  1.5663701296 2.3090801239 -0.8253800869
H  2.7617201805 3.4790000916 -0.2647100389
H  4.5055503845 3.4624001980 0.8787700534
H  6.0738005638 3.0767302513 0.3335300386
