17

O  2.4886400700 -0.7137900591 -0.7310200930
C  2.1083703041 0.2875500321 -0.1338600069
C  2.9702703953 1.4867900610 0.1697100103
C  4.3748307228 1.3553501368 -0.4068900347
C  5.2238802910 2.5398402214 -0.0495500043
C  6.2646503448 3.0384502411 -1.0178200006
C  5.0342001915 3.8602602482 -0.7501900792
H  1.0697500706 0.3571900129 0.2329400182
H  3.0075201988 1.6055701971 1.2580001354
H  2.4680502415 2.3676702976 -0.2452700287
H  4.3162302971 1.2330100536 -1.4958201647
H  4.8566002846 0.4495700300 -0.0184000023
H  5.4735503197 2.5596899986 1.0061800480
H  6.3512501717 2.5586102009 -1.9865401983
H  7.2080607414 3.3891904354 -0.6147500873
H  5.1479101181 4.7656803131 -0.1647300124
H  4.2943301201 3.9331903458 -1.5389701128
