12

C  0.9791100621 0.6994800568 -0.1379900128
C  2.4241001606 0.3680800498 0.0519100055
N  2.9482102394 -0.7975900769 0.2722000182
N  2.0011501312 -1.8173002005 0.3277700245
C  2.5696802139 -2.9550001621 0.5500300527
C  3.4072501659 1.4227101803 -0.0070000007
N  4.1712703705 2.2977802753 -0.0609300025
H  0.8403600454 1.7728800774 -0.2942800224
H  0.4132300317 0.3970300555 0.7477700114
H  0.5917700529 0.1638700217 -1.0094000101
H  1.9588100910 -3.8678903580 0.6231800318
H  3.6601603031 -3.0703303814 0.6744200587
