11

O  1.0254200697 0.0383900031 -0.1680700183
C  2.4501502514 0.0361800008 0.0112200016
C  3.2152900696 -0.7138200402 -1.0388600826
C  3.2440903187 0.7933000922 -1.0233501196
C  4.4402699471 1.4696100950 -0.6134000421
N  5.4058504105 2.0135200024 -0.2716700137
H  0.5742500424 0.5016400218 0.5602500439
H  2.8315703869 -0.0192000009 1.0271600485
H  2.6517302990 -1.2019500732 -1.8259501457
H  4.0980701447 -1.2602400780 -0.7263801098
H  2.6793103218 1.2964900732 -1.8010501862
