15

C  0.3957300484 0.4267400503 -0.0810700133
C  1.8233001232 0.0603500046 0.1559600085
C  2.8495101929 0.9160200357 0.0278100036
C  4.2436103821 0.4615400434 0.2840000391
O  4.5189304352 -0.6858300567 0.6123400331
C  5.2769203186 1.5177100897 0.1078400090
C  6.5718507767 1.2379601002 0.3022900224
H  -0.0224900022 -0.1989500076 -0.8753901124
H  0.2811400294 1.4746800661 -0.3758500516
H  -0.1875100136 0.2624500096 0.8300700784
H  2.0135600567 -0.9716000557 0.4495600462
H  2.6898801327 1.9470502138 -0.2624000013
H  4.9618601799 2.5128600597 -0.1795800179
H  6.9006905556 0.2426700145 0.5909600258
H  7.3328204155 2.0002501011 0.1765400171
