15

C  0.9463700652 -0.0123200007 0.5627500415
C  2.3720202446 -0.0346200019 0.1325000077
C  2.8065102100 0.7523100376 -1.0741500854
N  4.2128601074 1.1510100365 -1.2380300760
N  4.9177002907 0.0061900006 -1.5479800701
C  4.1747603416 -1.0500900745 -1.4423300028
C  2.7720003128 -0.7524400353 -1.1296600103
H  0.7456600070 0.8861400485 1.1554100513
H  0.7270300388 -0.8864101171 1.1842800379
H  0.2579200268 -0.0190200023 -0.2887100279
H  3.0460803509 -0.0695300028 0.9811400771
H  2.0677900314 1.3108400106 -1.6357600689
H  4.3625702858 1.8670700788 -1.9529401064
H  4.5234398842 -2.0800001621 -1.6055701971
H  2.0164701939 -1.2165700197 -1.7477301359
