19

C  0.8330400586 0.8598900437 1.0508700609
C  2.3232102394 0.8005300760 0.9649800658
C  3.0433902740 1.3975900412 0.0005100000
C  4.5403604507 1.3354099989 -0.0960100070
C  5.1471104622 2.7055003643 0.0026400003
C  5.8692708015 3.2830202579 -0.9709300399
C  6.4765906334 4.6438603401 -0.8645300865
H  0.4168500304 -0.1509100050 1.0008900166
H  0.3941300213 1.4504801035 0.2406000197
H  0.5327299833 1.3092700243 2.0022602081
H  2.8275501728 0.2330300063 1.7436901331
H  2.5356702805 1.9607201815 -0.7800100446
H  4.8076405525 0.8555000424 -1.0450100899
H  4.9600305557 0.7109701037 0.7017100453
H  4.9821004868 3.2362504005 0.9385200739
H  6.0387606621 2.7531702518 -1.9058301449
H  6.2706403732 5.1152305603 0.1015800089
H  6.0796904564 5.2914104462 -1.6522401571
H  7.5619106293 4.5776801109 -0.9875100851
