14

C  3.0341804028 -1.1452699900 0.5107100010
O  2.3133101463 0.0604600050 0.2970500290
C  3.0942602158 1.1566500664 0.1823000163
C  2.5411701202 2.3971002102 -0.0268400013
N  3.5630803108 3.3063802719 -0.1013500094
C  4.7614998817 2.6586000919 0.0580600016
C  4.4998202324 1.3162600994 0.2368900180
H  2.3088803291 -1.9609701633 0.5881300569
H  3.5977203846 -1.1083500385 1.4492801428
H  3.6963803768 -1.3653202057 -0.3336400092
H  1.5105201006 2.7068803310 -0.1283300072
H  3.4499502182 4.3007702827 -0.2507700026
H  5.6939005852 3.2057702541 0.0307300035
H  5.2497601509 0.5522300601 0.3882800341
