15

O  2.8760802746 -0.9452800751 -0.7176000476
C  2.3516502380 0.0930000097 0.0949300081
C  3.3168702126 1.2267801762 0.0927200094
C  3.3402404785 2.2137901783 -1.0444900990
C  2.8291802406 2.6398100853 0.3089900315
C  3.6311001778 3.5265202522 1.0997900963
C  4.3012003899 4.2696399689 1.7630001307
H  2.2364101410 -1.6760601997 -0.6883900762
H  2.2209601402 -0.2887700200 1.1121801138
H  1.3732000589 0.3848400414 -0.3006000221
H  4.2714800835 0.9343100786 0.5166200399
H  2.6212403774 2.0923101902 -1.8464701176
H  4.3086600304 2.5708701611 -1.3772201538
H  1.7569901943 2.7930202484 0.3907800317
H  4.8988304138 4.9280705452 2.3495202065
