13

O  2.4168403149 -0.6057800651 -1.2989301682
C  2.3176703453 -0.0271200035 -0.0047800005
C  2.8758502007 1.3464500904 0.0078500006
C  2.1770701408 2.5340101719 0.0800500065
O  3.0223701000 3.5960800648 0.0792400092
C  4.2806801796 3.0960903168 -0.0077700005
C  4.2484107018 1.7226501703 -0.0549200028
H  2.0172102451 -1.4888901711 -1.2413799763
H  2.8647301197 -0.6624100208 0.6999200583
H  1.2628201246 -0.0209400002 0.2901100218
H  1.1250699759 2.7797803879 0.1349300146
H  5.0748605728 3.8290102482 -0.0289600026
H  5.1042799950 1.0673201084 -0.1334800124
