13

C  0.9894000888 -0.0255900007 0.0165400002
C  2.5200002193 0.0000000000 0.0000000000
O  2.9723100662 -0.6505100131 1.1873100996
C  3.0180702209 -0.7708300948 -1.1557000875
C  3.4272303581 -1.3969700336 -2.0966701508
C  3.0020201206 1.3611700535 0.0000000000
C  3.3993003368 2.4830701351 0.0000000000
H  0.5618500710 0.4470600486 -0.8757600784
H  0.5941300392 0.4947600365 0.8977600932
H  0.6126400828 -1.0545600653 0.0691200048
H  2.7844302654 -0.0458500013 1.9231600761
H  3.7978601456 -1.9526700974 -2.9267604351
H  3.7633204460 3.4847602844 -0.0064400006
