14

C  0.8639200330 -0.4564900398 -0.0423500054
C  2.3347601891 -0.0776300058 0.0148700010
C  2.5269501209 1.4348400831 -0.0598800071
C  3.9876801968 1.8281401396 -0.0080700004
O  4.9182801247 1.0370800495 0.0972100049
C  4.2383403778 3.2572503090 -0.0915600061
N  4.3975701332 4.4056901932 -0.1611000001
H  0.7501400709 -1.5437201262 0.0116300005
H  0.4063800275 -0.1130300090 -0.9756400585
H  0.3123600185 -0.0152600007 0.7939500809
H  2.8659603596 -0.5635000467 -0.8123500943
H  2.7723002434 -0.4649400115 0.9428300858
H  2.0113902092 1.9170001745 0.7789200544
H  2.1007401943 1.8173401356 -0.9947200418
