17

C  0.9138500690 -0.1539200097 -0.1506900042
C  2.3311901093 0.3269800246 0.1086200103
C  3.5794503689 -0.4513100386 -0.5246400237
C  4.3308205605 0.9062901139 -0.1643000096
C  2.9875602722 1.4521201849 -0.8243000507
C  3.0049402714 0.8836100101 -2.2070100307
C  3.3985903263 -0.3841300011 -2.0078701973
H  0.1920600086 0.5970100164 0.1869200170
H  0.7200800776 -1.0776801109 0.4040100276
H  0.7153100371 -0.3527300358 -1.2076901197
H  2.4220502377 0.5228700638 1.1886100769
H  3.9193704128 -1.3855301142 -0.0820600092
H  4.4888901711 1.1226100922 0.8984301090
H  5.2620401382 1.1111500263 -0.7034400702
H  2.7119603157 2.4971401691 -0.6922300458
H  2.7576200962 1.3788901567 -3.1309502125
H  3.5491304398 -1.1692501307 -2.7302904129
