15

C  1.0400800705 0.0012100000 0.0436700024
C  2.3788900375 -0.0235300008 0.0519600064
C  3.2911403179 1.1615800858 0.0622600019
O  4.5435504913 0.7427901030 -0.5153200030
C  4.5430002213 -0.6447800398 -0.5153300166
C  5.6204104424 -1.3315300941 -0.9059300423
C  3.2397704124 -1.2294800282 -0.0777400061
H  0.4601500332 -0.9148800969 -0.0152200004
H  0.4924500287 0.9374901056 0.0930700079
H  3.4871003628 1.4958201647 1.0868301392
H  2.8987002373 1.9965901375 -0.5260100365
H  5.6263504028 -2.4156203270 -0.9204400778
H  6.5196104050 -0.8125001192 -1.2201501131
H  2.8462803364 -1.9340901375 -0.8168800473
H  3.3528203964 -1.7244501114 0.8923300505
