11

C  1.0171201229 0.0252100024 -0.1126900092
C  2.3447601795 -0.0384900011 -0.0056900005
C  3.2740902901 -1.1873401403 -0.0196000021
O  4.5822200775 -0.6204900146 0.2031700164
N  4.4815702438 0.7995800376 0.2884500325
C  3.2318902016 1.1015801430 0.1735000163
H  0.4231900275 -0.8746801019 -0.2384900153
H  0.4870600402 0.9725701213 -0.0756800100
H  3.2830400467 -1.6968101263 -0.9871300459
H  3.0651302338 -1.8999402523 0.7828500867
H  2.8297901154 2.1234703064 0.2040600181
