16

C  2.3273603916 -0.5059400797 -1.4044101238
C  2.4989700317 0.0466300026 -0.0006900000
N  3.0178802013 1.4023801088 -0.0049700006
C  2.2553303242 2.5407602787 -0.0252100024
C  3.1093001366 3.6223402023 -0.0097400006
C  4.4308500290 3.1166503429 0.0258100033
C  4.3451104164 1.7414602041 0.0311300009
H  1.9354802370 -1.5269001722 -1.3655700684
H  3.2821402550 -0.5263200402 -1.9403400421
H  1.6305601597 0.1057800129 -1.9872301817
H  3.1929101944 -0.5740100145 0.5768200755
H  1.5404001474 0.0582200028 0.5298500061
H  1.1747701168 2.4938402176 -0.0514300019
H  2.8114700317 4.6626901627 -0.0215900000
H  5.3463001251 3.6928203106 0.0465600044
H  5.1184506416 0.9851700664 0.0549000055
