16

C  2.5133802891 -3.0384202003 0.3286500275
C  2.6883602142 -1.9037702084 -0.6703300476
C  2.9241702557 -2.4502701759 -2.0838701725
O  3.2693903446 -1.3953300714 -2.9835402966
O  1.4761800766 -1.1278101206 -0.6500000954
N  1.7039201260 0.1215900108 -1.2526201010
C  0.6259700656 0.8254300356 -1.1551500559
H  2.3281600475 -2.6382501125 1.3314301968
H  3.4017801285 -3.6761102676 0.3671800196
H  1.6463500261 -3.6576402187 0.0725300014
H  3.5236201286 -1.2647701502 -0.3572000563
H  2.0205502510 -2.9291603565 -2.4748003483
H  3.7440202236 -3.1743702888 -2.0972402096
H  2.7312400341 -0.6273000240 -2.6915700436
H  0.5968800187 1.8446900845 -1.5696301460
H  -0.2919300199 0.4542300403 -0.6691000462
