14

C  1.0100600719 0.0142900012 0.0862600058
C  2.4900903702 -0.0044900002 -0.0210300032
C  3.2895901203 -1.0703600645 -0.1251800060
N  4.5833101273 -0.6677300930 -0.2019400150
C  4.7010507584 0.7102600932 -0.1514900178
O  5.7431206703 1.3426200151 -0.2009200156
C  3.2943601608 1.2749800682 -0.0243700035
H  0.5928800702 -0.9974800348 0.0639800057
H  0.5747800469 0.5770700574 -0.7452100515
H  0.7018300891 0.4862500429 1.0243201256
H  3.0209703445 -2.1171801090 -0.1510200053
H  5.3874106407 -1.2732001543 -0.2869300246
H  3.0593903065 1.9001101255 -0.8886100650
H  3.1913402081 1.8215000629 0.9163100719
