15

C  0.9962400794 0.0260100029 0.0543900058
C  2.5114700794 -0.0379300043 0.0088600004
N  3.1545400620 0.9855501056 0.8792200089
C  4.1927504539 -0.0157100018 1.2261900902
C  3.1949400902 -1.1330400705 0.8647400737
C  3.7378401756 -2.2522799969 0.1376500130
N  4.1686801910 -3.1626102924 -0.4401400387
H  0.5636500716 -0.8183100820 -0.4924300313
H  0.6313800216 0.9466000795 -0.4133200347
H  0.6132000685 -0.0092600007 1.0801100731
H  2.8758502007 0.0166800003 -1.0271401405
H  2.5861401558 1.2797201872 1.6756200790
H  5.0823507309 0.0520000048 0.5875501037
H  4.5154705048 0.0091900006 2.2715601921
H  2.5930202007 -1.4437401295 1.7303700447
