12

C  0.9445600510 0.0108000003 -0.0079500005
C  2.4235503674 0.0295200031 -0.0010100001
C  3.2679903507 1.1189100742 0.0033100003
N  4.5383105278 0.6225200295 0.0089100003
N  4.5854802132 -0.7194400430 0.0084800012
C  3.3001303673 -1.0792900324 0.0024100002
H  0.5337900519 1.0254400969 0.0015600001
H  0.5642400384 -0.5173000693 0.8721800447
H  0.5726000667 -0.4975000322 -0.9031600356
H  3.0809803009 2.1833100319 0.0029000002
H  5.4136004448 1.1335800886 0.0131500009
H  3.0519101620 -2.1332800388 0.0007000001
