17

C  0.7899500728 0.5062700510 -0.0439100042
C  2.0811600685 0.2125100195 0.1600100100
C  3.2730503082 1.1318202019 0.0403700024
C  3.9796802998 1.3465400934 1.3909200430
C  3.5455701351 2.7275803089 1.8871002197
C  3.1086802483 3.4094600677 0.6347500682
C  2.9562602043 2.5398302078 -0.3707200289
H  0.0243900027 -0.2551800311 0.0731300116
H  0.4574500322 1.5009701252 -0.3231900334
H  2.3246202469 -0.8124000430 0.4394400418
H  3.9768502712 0.6882800460 -0.6742600203
H  5.0667300224 1.3462401628 1.2347099781
H  3.7659802437 0.5673200488 2.1306102276
H  4.3766903877 3.2518200874 2.3684301376
H  2.7112200260 2.6590702534 2.5936000347
H  2.9088001251 4.4697504044 0.5678100586
H  2.6237602234 2.8049602509 -1.3649801016
