18

C  0.9369400740 -0.0586500056 0.0710400045
C  2.4463200569 -0.0105800014 0.0356300026
N  2.9779403210 -0.0180400014 -1.3460201025
C  3.1757402420 1.0771400928 0.8557500839
C  4.2265105247 0.0233700015 1.2662601471
C  3.2273802757 -1.0870500803 0.8608700633
O  3.7714803219 -2.1863400936 0.1021200046
H  0.5654299855 -0.0744700059 1.1016501188
H  0.5555100441 -0.9557300806 -0.4299700558
H  0.4996400177 0.8166500330 -0.4222400188
H  3.9612503052 0.2510200143 -1.4209600687
H  2.4842801094 0.6235000491 -1.9691702127
H  2.5945801735 1.4466201067 1.7097702026
H  3.5624103546 1.9430401325 0.3106800020
H  5.1411604881 0.0464000031 0.6632400155
H  4.5064201355 0.0378700048 2.3237302303
H  2.6645903587 -1.4650801420 1.7235201597
H  3.6226902008 -1.9011101723 -0.8222500682
