18

C  3.1095302105 -1.0562001467 -0.7963500619
C  2.6164402962 0.1150600091 0.0451200046
N  3.4017801285 1.3239099979 -0.1840500236
C  3.2807400227 1.8751901388 -1.5451301336
C  3.3378400803 3.3506402969 -1.3489400148
C  3.2136602402 3.6514003277 -0.0545600057
C  3.0599603653 2.4093503952 0.7522300482
H  2.5484702587 -1.9615402222 -0.5420700312
H  4.1704602242 -1.2560701370 -0.6111100912
H  2.9753401279 -0.8723500371 -1.8671801090
H  2.7040703297 -0.1750600189 1.0993500948
H  1.5516901016 0.2885700166 -0.1535700113
H  2.3324701786 1.6143400669 -2.0299501419
H  4.1121802330 1.5290000439 -2.1665601730
H  3.4394702911 4.0642404556 -2.1522603035
H  3.1982803345 4.6481404305 0.3596400321
H  3.7497003078 2.4013402462 1.6016000509
H  2.0301401615 2.3451302052 1.1234600544
