15

N  2.9986402988 -1.2207001448 0.5776200294
C  2.5673201084 -0.2689100206 -0.2763200104
S  0.9948800802 -0.2404600233 -0.8042100668
N  3.4616403580 0.6753900051 -0.6662901044
C  4.8073806763 0.8162000775 -0.2144700140
C  5.9127006531 -0.0220900010 -0.7951900363
C  5.8421406746 1.4427900314 -1.1090201139
H  3.9861204624 -1.3774300814 0.7152800560
H  2.3664202690 -1.9739900827 0.8160400391
H  3.0843403339 1.3927201033 -1.2776000500
H  4.8726701736 1.0661100149 0.8423100710
H  5.6669206619 -0.7212900519 -1.5862300396
H  6.6970605850 -0.3605500162 -0.1287000030
H  6.5764007568 2.0967502594 -0.6529099941
H  5.5580906868 1.7286001444 -2.1151001453
