13

C  2.1316101551 0.6191200614 -0.1398400068
N  3.3267202377 0.5657899976 -0.6239000559
N  4.2969102859 1.0388001204 0.1909300238
C  5.6152000427 1.0473901033 -0.1798600107
C  6.6499605179 1.5011301041 0.5337100625
C  8.0113306046 1.4326200485 -0.0244800020
O  8.9771308899 1.8411201239 0.6084900498
H  1.2853901386 0.2540100217 -0.7430700660
H  1.8935601711 1.0144901276 0.8615400791
H  4.0818004608 1.4258800745 1.1097700596
H  5.7554903030 0.6237700582 -1.1732900143
H  6.5501503944 1.9285700321 1.5228002071
H  8.1101503372 0.9975500703 -1.0328700542
