14

C  1.5652401447 -0.5308899879 1.1083201170
C  2.3325099945 -0.1087800115 0.0955000073
C  3.0851502419 1.1931500435 0.0938400030
C  4.5969805717 0.9728100896 0.0065200003
C  5.3202004433 2.2530400753 -0.0243300013
C  5.9147605896 3.2977702618 -0.0499500036
H  1.0387400389 -1.4787300825 1.0489400625
H  1.4419901371 0.0538000017 2.0148801804
H  2.4175901413 -0.7282000184 -0.7954000235
H  2.8465802670 1.7785302401 0.9913700819
H  2.7434902191 1.7881201506 -0.7627400160
H  4.8411803246 0.3966700435 -0.8943600655
H  4.9387702942 0.3818600476 0.8650400639
H  6.4420905113 4.2226500511 -0.0724100024
