16

N  1.0047301054 0.1080600023 -0.2050300092
C  2.4464602470 0.0058100005 -0.0116800005
C  2.8675203323 -1.2986900806 0.7016300559
C  3.3075003624 -0.8589400649 2.0742001534
C  3.5425901413 -1.6482001543 3.1259701252
C  3.3887002468 0.5762900114 2.0712401867
C  2.9169700146 1.0731701851 0.9229500890
H  0.6779700518 -0.6787600517 -0.7608800530
H  0.7925000787 0.9503000975 -0.7344300747
H  2.9509503841 0.0851000100 -0.9810401201
H  3.7142302990 -1.7502501011 0.1682100147
H  2.0617902279 -2.0399401188 0.7423700690
H  3.4315602779 -2.7247002125 3.0506002903
H  3.8302202225 -1.2410401106 4.0896902084
H  3.7471001148 1.1664401293 2.9024202824
H  2.8561201096 2.1288900375 0.7008700967
