12

C  0.8811401129 -0.0317000039 -0.0038900003
N  2.3190400600 0.0271900035 0.0114400005
S  3.1601803303 1.4990701675 -0.0202400014
C  4.6640501022 0.6447400451 -0.0188100003
C  4.5429301262 -0.6863300204 -0.0038800002
C  3.1219203472 -1.0948200226 0.0077000004
O  2.7712900639 -2.2635002136 0.0108000003
H  0.4371900260 0.9669600725 0.0310500022
H  0.5429400206 -0.6138200164 0.8586800694
H  0.5592500567 -0.5472800732 -0.9137500525
H  5.6118807793 1.1667799950 -0.0300200023
H  5.3364500999 -1.4132401943 -0.0019700001
