10

O  1.0391700268 0.0056200004 0.2111800164
C  2.2444901466 -0.0057700006 0.0801900029
C  3.3456504345 1.0620701313 0.0046000006
N  4.2329602242 -0.0087600015 -0.4962800443
C  3.3160202503 -1.0926800966 -0.0814100057
H  3.6323904991 1.4658300877 0.9787500501
H  3.1549704075 1.8704100847 -0.7040100098
H  4.3657603264 0.0292800032 -1.5102001429
H  3.1055803299 -1.8367201090 -0.8504700661
H  3.5919103622 -1.5798701048 0.8585900664
