19

C  3.4040703773 -1.1566700935 -0.4831300080
C  2.6344501972 -0.1070100069 0.3128000200
O  2.5480701923 -0.5261300206 1.6760001183
C  3.2320003510 1.3190701008 0.1942000091
C  2.3736400604 2.3342401981 0.9566001296
C  4.6603603363 1.4133601189 0.6895300746
C  5.7048606873 1.7314400673 -0.0869600102
H  3.4781203270 -0.8786800504 -1.5384801626
H  2.8981900215 -2.1252701283 -0.4135500193
H  4.4122300148 -1.3073201180 -0.0842000097
H  1.6058801413 -0.0817400068 -0.0670500025
H  3.4545001984 -0.6809400320 1.9922801256
H  3.2028400898 1.5986001492 -0.8678900599
H  2.3625802994 2.1327803135 2.0334801674
H  1.3388701677 2.3116402626 0.5983800888
H  2.7520704269 3.3519504070 0.8111700416
H  4.8330307007 1.2303700447 1.7478500605
H  5.5896906853 1.9391100407 -1.1463501453
H  6.7063703537 1.7974501848 0.3290000260
