20

C  3.1029303074 -0.9907401204 -0.5555500388
N  2.6652102470 -0.0171400011 0.4334300458
C  3.3485202789 1.2732901573 0.3078900278
C  2.6412003040 2.2825002670 1.2196501493
C  4.8388104439 1.2073000669 0.6114900708
C  5.2749600410 0.7403800488 1.9751201868
C  5.7517104149 1.5625400543 -0.3112600148
H  2.4946603775 -1.8961400986 -0.4630800188
H  4.1483502388 -1.2820000648 -0.4143900275
H  2.9698102474 -0.6124100685 -1.5743601322
H  2.7915503979 -0.3887400329 1.3716300726
H  3.2006402016 1.6368300915 -0.7184900641
H  2.6429002285 1.9656400681 2.2684900761
H  1.5955901146 2.4103202820 0.9164700508
H  3.1226801872 3.2651803493 1.1635401249
H  4.9157605171 -0.2736200094 2.1746201515
H  4.8946003914 1.4075001478 2.7544202805
H  6.3662805557 0.7205800414 2.0697603226
H  5.4579806328 1.9019601345 -1.3001700640
H  6.8170304298 1.5210801363 -0.1057400033
