17

C  1.2957100868 -0.1670800000 0.3824600279
N  2.6976900101 0.0857700035 0.6875500679
C  3.0920002460 1.4808200598 0.4227400124
C  2.3824400902 2.4915001392 1.3199900389
C  4.5831403732 1.5826401711 0.6947500110
N  5.4168004990 1.8824100494 -0.2505700290
O  6.7106809616 1.9108301401 0.2822300196
H  1.0916601419 -1.2379400730 0.4828200340
H  1.0436601639 0.1257900000 -0.6434700489
H  0.6307700276 0.3502900004 1.0806101561
H  3.2676403522 -0.5195400715 0.0924500078
H  2.9168400764 1.7297600508 -0.6309200525
H  2.4805800915 2.2259902954 2.3794801235
H  1.3170100451 2.5634703636 1.0812801123
H  2.8162803650 3.4903202057 1.1951901913
H  4.9215602875 1.3873801231 1.7289201021
H  7.2527904510 2.1499102116 -0.4929400384
