11

C  2.6929202080 -1.1030801535 0.4068000317
C  2.2035601139 0.1180000082 0.1478800178
C  2.9714100361 1.3093601465 0.0927400067
C  2.5332503319 2.5747401714 -0.1646700054
O  3.6179802418 3.3890602589 -0.1135600060
N  4.7354402542 2.6017401218 0.1806000173
N  4.3183603287 1.3436701298 0.3012800217
H  2.0417602062 -1.9706301689 0.4323500395
H  3.7501502037 -1.2658101320 0.5986200571
H  1.1348301172 0.2051300108 -0.0345500037
H  1.5877901316 3.0433602333 -0.3842300177
