15

C  0.8501800299 -0.0470600016 0.0840800107
N  2.2085201740 -0.3158400357 -0.3603100181
C  2.6108503342 -1.6514401436 -0.3802500367
O  1.8733701706 -2.6292901039 -0.3130100369
N  3.1961600780 0.6627400517 -0.0993400067
C  4.0552401543 0.8132200837 -1.2816600800
C  2.9850702286 1.8122401237 -0.9882800579
H  0.5602200627 0.9840500951 -0.1338500082
H  0.7877300382 -0.2285600305 1.1620900631
H  0.1558700055 -0.7235700488 -0.4240900278
H  3.7019901276 -1.7653400898 -0.4934600294
H  3.9163904190 0.1583900154 -2.1338102818
H  5.0819501877 1.0918201208 -1.0775101185
H  3.2797303200 2.7722003460 -0.5827800632
H  2.1254301071 1.8355401754 -1.6469501257
