13

C  1.0560801029 0.0562100038 -0.0198400021
C  2.5379803181 -0.0451500043 -0.0788100064
C  3.2825703621 -1.1419900656 -0.0160200018
C  4.7046103477 -0.7581200004 -0.1205400079
C  4.5633502007 0.7401900291 -0.2565200031
O  5.5051107407 1.5139200687 -0.3807200491
O  3.2482802868 1.1439801455 -0.2242700160
H  0.5865200758 -0.9317600727 0.0240500011
H  0.6744400859 0.5722400546 -0.9063200355
H  0.7490500212 0.6186200380 0.8671100736
H  2.9190902710 -2.1528003216 0.0938200057
H  5.2571306229 -1.0079500675 0.7878200412
H  5.1708307266 -1.1799900532 -1.0135000944
