21

C  0.9842100739 0.4669300318 -1.2570401430
C  2.4048802853 0.3160500228 -0.7364700437
C  3.0369904041 1.6727701426 -0.4241900146
C  4.4748802185 1.5118801594 0.0740400031
C  5.1092305183 2.8694102764 0.3911700249
C  6.5342507362 2.8468101025 0.8792500496
C  7.3185105324 1.7756601572 1.0591300726
H  0.5547900200 -0.5156600475 -1.4743801355
H  0.9657500982 1.0571300983 -2.1780600548
H  0.3466300368 0.9611600637 -0.5179900527
H  3.0074102879 -0.2125800252 -1.4854000807
H  2.3932800293 -0.3059000373 0.1671100110
H  2.4385702610 2.1899802685 0.3351200521
H  3.0278301239 2.2978801727 -1.3248901367
H  5.0658602715 0.9950400591 -0.6923400760
H  4.4789004326 0.8813700676 0.9718601108
H  4.5038304329 3.3773102760 1.1534801722
H  5.0759401321 3.4992702007 -0.5073000193
H  6.9553203583 3.8261504173 1.1056001186
H  6.9817805290 0.7653101087 0.8585900664
H  8.3366403580 1.8932200670 1.4184701443
