21

C  0.9258800745 -0.0633300096 -0.0195500012
C  2.4624803066 -0.1251300126 -0.0094800014
C  2.9143002033 -0.8850000501 1.2529301643
C  2.9465701580 -0.9006701112 -1.2462099791
C  3.0779201984 1.2968201637 0.0342100039
C  2.7330503464 2.2091102600 -1.1403801441
O  3.3777601719 3.4665801525 -0.9688701034
H  0.5442000628 0.3882800341 -0.9407101274
H  0.5492300391 0.5231100321 0.8253800869
H  0.4916700423 -1.0668700933 0.0523600020
H  2.5801200867 -0.3742100298 2.1626200676
H  4.0059804916 -0.9658700824 1.2961801291
H  2.5047702789 -1.9009701014 1.2729500532
H  2.5799400806 -0.4527600408 -2.1752200127
H  2.5904102325 -1.9367802143 -1.2244700193
H  4.0406203270 -0.9262900352 -1.2923800945
H  4.1719703674 1.2217700481 0.1021100059
H  2.7725300789 1.7983201742 0.9629600644
H  1.6574101448 2.3906702995 -1.2153400183
H  3.0825202465 1.7907900810 -2.0878002644
H  3.0480501652 3.8541202545 -0.1400500238
