16

C  0.8553300500 -0.1745700091 -0.1258700043
C  2.3699102402 -0.0475600064 0.0294600017
N  3.0507903099 -0.7808400989 -1.0329400301
C  2.7939503193 1.3901301622 -0.0169200022
C  3.3740501404 2.0318300724 1.0083301067
C  3.7466003895 3.3986802101 0.9115100503
C  4.0636000633 4.5545201302 0.8338800669
H  0.3357400298 0.3562300205 0.6799500585
H  0.5446500182 -1.2246800661 -0.0842600092
H  0.5064000487 0.2414700240 -1.0784900188
H  2.6588401794 -0.4954800308 0.9878700972
H  2.7078201771 -0.4672000408 -1.9393901825
H  2.8041203022 -1.7672500610 -0.9711200595
H  2.6076302528 1.9289201498 -0.9434000850
H  3.5786802769 1.5177100897 1.9426701069
H  4.3467602730 5.5783905983 0.7628900409
