16

C  2.0103399754 -0.4899100363 -1.3060700893
O  2.2538902760 0.0866000131 -0.0312900022
C  3.0680501461 1.2771400213 -0.0279700030
C  2.3796002865 2.5901503563 -0.4790300429
C  3.1645002365 3.3089101315 0.6331800222
C  3.2522203922 1.9509401321 1.3539201021
H  1.3982601166 -1.3853100538 -1.1719601154
H  2.9554603100 -0.7735500336 -1.7774701118
H  1.4708501101 0.2158700079 -1.9436200857
H  4.0290603638 1.1011800766 -0.5301900506
H  1.2930201292 2.5976102352 -0.3352500200
H  2.6063201427 2.9171202183 -1.4970802069
H  4.1356506348 3.6975703239 0.3064100146
H  2.6244802475 4.0959401131 1.1648200750
H  4.2023301125 1.7490901947 1.8555601835
H  2.4315803051 1.7643001080 2.0559601784
