17

C  1.2417001724 0.0680600032 0.4832900167
N  2.4856202602 -0.1047800034 -0.2786300182
C  2.5795001984 -1.4926701784 -0.7862200141
C  1.5382701159 -1.8581501245 -1.8095201254
C  0.7154900432 -2.9119100571 -1.7173202038
N  2.7368202209 0.8915600777 -1.1752601862
C  3.9763600826 1.2547800541 -1.1775001287
H  1.2607201338 1.0296101570 1.0085500479
H  1.1319700480 -0.7080100179 1.2486400604
H  0.3572300375 0.0594900027 -0.1630800217
H  2.5577902794 -2.1894900799 0.0613100044
H  3.5663404465 -1.6272301674 -1.2472501993
H  1.4690800905 -1.2016301155 -2.6743001938
H  0.7483000755 -3.5901803970 -0.8705100417
H  -0.0163800009 -3.1115002632 -2.4941301346
H  4.3076505661 2.0532300472 -1.8594001532
H  4.7452607155 0.8106800914 -0.5206400156
