14

O  0.9830300212 -0.0281000026 0.2397800237
C  2.1938300133 -0.0078600002 0.0606300049
C  2.9530603886 1.2433300018 0.0009900001
C  4.2634506226 1.3493801355 -0.2205700129
C  4.6602907181 2.7808604240 -0.2063700259
N  3.4270102978 3.5466201305 0.0483900011
C  2.3232102394 2.5690703392 0.1875500083
H  2.7800600529 -0.9322201014 -0.0727100000
H  4.9537401199 0.5358200669 -0.3839600384
H  5.3892507553 2.9750502110 0.5862800479
H  5.0996208191 3.0694103241 -1.1668801308
H  3.2336802483 4.1407203674 -0.7562200427
H  1.5554001331 2.7562103271 -0.5706200004
H  1.8739601374 2.6640102863 1.1810600758
