17

C  -1.6330502033 0.8696700335 0.5549400449
C  -1.1848801374 -0.3111700416 -0.2610200047
C  -0.3288100064 -1.3997000456 0.3026800454
C  1.0501401424 -1.3005801439 -0.3409900367
C  1.7076700926 0.0589900054 -0.0817400068
O  0.8016400337 1.1276501417 0.1993000060
C  -0.4954000413 1.0161200762 -0.4175600410
H  -2.5760700703 1.3374700546 0.2989500165
H  -1.4014701843 0.8923600912 1.6132501364
H  -1.8098201752 -0.6466700435 -1.0798001289
H  -0.2458100170 -1.3148701191 1.3920801878
H  -0.7755800486 -2.3751301765 0.0843700096
H  1.7057901621 -2.1076102257 0.0035000003
H  0.9431000352 -1.4317301512 -1.4260300398
H  2.3654303551 -0.0238700025 0.7899700403
H  2.3363702297 0.3460400105 -0.9309400916
H  -0.6744900346 1.5790700912 -1.3269600868
