19

C  1.0014500618 0.0043000001 -0.0045700003
C  2.5345101357 -0.0163700003 -0.0305800028
C  3.0520102978 -1.2382401228 -0.8114900589
C  3.3298504353 -0.6790600419 -2.1678299904
C  3.3544502258 0.6582700610 -2.1567101479
C  3.0945801735 1.2123600245 -0.7858000994
C  4.3806400299 1.7435801029 -0.1589700133
H  0.6390500069 0.8839001060 0.5375300646
H  0.6137100458 -0.8848400712 0.5033300519
H  0.5757600069 0.0296100024 -1.0133301020
H  2.8851201534 -0.0502500050 1.0082800388
H  2.3195199966 -2.0499401093 -0.8507500291
H  3.9796004295 -1.6237801313 -0.3748200238
H  3.5206003189 -1.2904601097 -3.0394401550
H  3.5641102791 1.2759001255 -3.0194003582
H  2.3554401398 2.0197901726 -0.8346500397
H  5.1524600983 0.9689200521 -0.0905200094
H  4.1877903938 2.1151800156 0.8524400592
H  4.7881603241 2.5712201595 -0.7494400740
