14

C  1.7040901184 -0.5594400167 -0.6560100317
O  3.1077003479 -0.4326100349 -0.4608800411
N  3.4069502354 0.9272601008 -0.2828200161
C  4.6756901741 1.0917100906 -0.0938900039
C  5.7420206070 0.0474000052 -0.0594800040
C  5.0138702393 2.4810502529 0.0799100026
C  5.2986507416 3.6386902332 0.2238300145
H  1.4686701298 -1.6179101467 -0.7942200899
H  1.3944901228 -0.0092300009 -1.5498801470
H  1.1646401882 -0.1895500273 0.2213700116
H  5.4883408546 -0.7151700854 0.6822400689
H  6.7096605301 0.4846100509 0.2015200257
H  5.8198008537 -0.4241200387 -1.0432200432
H  5.5404005051 4.6688599586 0.3496700227
