15

O  2.3291499615 -0.2769700289 1.4790000916
C  2.5195400715 -0.0222100019 0.0966900066
C  2.9238502979 1.3915101290 -0.0712400079
C  4.0042600632 1.8752502203 -0.6739900112
O  4.1345701218 3.2449002266 -0.6946200728
C  2.9469702244 3.7230002880 -0.0267600026
C  2.1231000423 2.5256202221 0.4446600080
H  2.1303300858 -1.2242300510 1.5630401373
H  1.5803002119 -0.2170300037 -0.4300200343
H  3.2847602367 -0.7066400647 -0.2839200199
H  4.8077402115 1.3401701450 -1.1529600620
H  2.3806700706 4.3415503502 -0.7322700620
H  3.2501401901 4.3568606377 0.8139001131
H  1.1142301559 2.5490803719 0.0211800020
H  2.0432102680 2.5114402771 1.5361801386
