17

C  1.5192401409 0.0803100020 2.1002202034
O  2.8826804161 0.4568800330 1.9443200827
C  3.1054100990 1.4240300655 0.9087100625
C  2.5456702709 2.7870600224 1.3137800694
C  4.6162905693 1.5308700800 0.7055400610
C  5.1235904694 0.3037600219 -0.0005000000
O  5.7361502647 0.3474400342 -1.0656300783
H  1.4670701027 -0.6979000568 2.8667902946
H  1.1202300787 -0.3237200081 1.1653400660
H  0.9131200910 0.9244601130 2.4391403198
H  2.6279401779 1.0808501244 -0.0179500002
H  2.8736801147 3.0598602295 2.3227400780
H  1.4513400793 2.7743403912 1.3262600899
H  2.8556101322 3.5704503059 0.6152100563
H  5.1448006630 1.6019500494 1.6623300314
H  4.8729400635 2.4023301601 0.0935100093
H  4.9493603706 -0.6569900513 0.5128700733
