19

C  0.9751900434 0.0351400040 0.1781900078
C  2.4960103035 0.0126800006 0.0082400013
C  2.9797003269 -1.3274700642 -0.5627000332
C  2.7006001472 -1.4487600327 -2.0565600395
O  3.2613904476 -0.3470000327 -2.7671704292
C  2.7033102512 0.9006600380 -2.3599603176
C  2.9817502499 1.1618500948 -0.8835600615
H  0.6527400613 0.9827400446 0.6239100099
H  0.6504700184 -0.7716100216 0.8444300294
H  0.4460800588 -0.0835200027 -0.7721100450
H  2.9326701164 0.1403500140 1.0061000586
H  2.5323600769 -2.1690800190 -0.0218400024
H  4.0658202171 -1.3862601519 -0.4095400274
H  3.1621501446 -2.3628802299 -2.4440701008
H  1.6271601915 -1.5124400854 -2.2663302422
H  3.1674103737 1.6852701902 -2.9665102959
H  1.6302100420 0.9115900397 -2.5799803734
H  4.0677900314 1.2565701008 -0.7499700189
H  2.5353701115 2.1140902042 -0.5748100281
