17

C  0.9452800751 0.0614600070 -0.1859600097
C  2.4219303131 0.0044300002 0.0186500009
O  2.8068802357 -0.1506500095 1.3974701166
C  3.3013401031 -0.6945300698 -0.9833400846
C  3.4025003910 0.7995600104 -0.8245800734
C  2.9591801167 1.7116101980 -1.9190301895
O  4.5578703880 1.2731400728 -0.1006800085
H  0.6662100554 0.0457800031 -1.2433100939
H  0.5372900367 0.9736200571 0.2627500296
H  0.4664300382 -0.7970000505 0.2940000296
H  3.5229604244 0.4840000272 1.5959700346
H  2.8403801918 -1.0878500938 -1.8835901022
H  4.1009202003 -1.3157701492 -0.6016100645
H  2.1388702393 1.2920300961 -2.5101501942
H  3.7895102501 1.9102001190 -2.6048800945
H  2.6250603199 2.6683902740 -1.5036600828
H  5.3777904510 0.9287100434 -0.4973600209
