15

C  0.9383400679 0.0515600070 -0.0617100038
C  2.4550900459 -0.0106400009 -0.0535400026
C  3.0843901634 1.3646100760 0.0050900006
O  2.4614903927 2.4182102680 -0.0394000039
C  4.5645103455 1.3849400282 0.0528900065
C  5.2694602013 2.0918400288 1.1818000078
O  5.1521902084 0.6635800600 1.1473501921
H  0.5158200264 -0.9567300677 -0.1114900112
H  0.5713700056 0.6189900637 -0.9232800603
H  0.5611100197 0.5367800593 0.8443300724
H  2.8078701496 -0.5096900463 -0.9627600908
H  2.7886502743 -0.5887600780 0.8138500452
H  5.0648903847 1.3515201807 -0.9059000611
H  4.6735005379 2.6329302788 1.9060401917
H  6.2434806824 2.5210204124 0.9865200520
