16

C  3.1937601566 -1.3833900690 -0.6175500751
C  2.5658202171 -0.1921500117 0.0831400007
N  3.1643900871 1.0502201319 -0.3445400298
C  4.3216204643 1.5525501966 0.2114700079
O  4.9210705757 1.0303701162 1.1449800730
C  4.7799100876 2.8581802845 -0.4416900277
O  4.3487501144 2.9700503349 -1.7946901321
H  2.7139201164 -2.3129801750 -0.2955800295
H  4.2639102936 -1.4552000761 -0.3947400451
H  3.0856401920 -1.2992801666 -1.7045102119
H  2.6798300743 -0.2929000258 1.1671401262
H  1.4982200861 -0.1369800121 -0.1486100107
H  2.7785201073 1.5554901361 -1.1375401020
H  5.8723201752 2.9106702805 -0.4186100364
H  4.3647103310 3.6952602863 0.1266700178
H  4.8629107475 2.3131401539 -2.2980701923
