19

C  2.1554400921 -0.2434900105 -1.5836501122
N  2.3626401424 0.1233800128 -0.1893600076
C  3.0685203075 1.3972400427 -0.0478600040
C  2.2743501663 2.6185400486 -0.4846200347
C  3.0100002289 3.7609202862 0.1995400041
N  3.6261801720 3.2121500969 1.4179601669
C  3.3724501133 1.7623801231 1.4099700451
H  1.6635100842 -1.2201700211 -1.6312102079
H  3.1041102409 -0.3201200068 -2.1248400211
H  1.5046501160 0.4707100391 -2.0968801975
H  2.8979201317 -0.6116700768 0.2724699974
H  4.0189905167 1.3580601215 -0.5992000103
H  1.2411400080 2.5659003258 -0.1174700111
H  2.2476501465 2.7417201996 -1.5715601444
H  3.7963502407 4.1472702026 -0.4594900310
H  2.3358600140 4.5886802673 0.4392500222
H  4.6311807632 3.3818402290 1.3862000704
H  4.2282905579 1.2040901184 1.8033500910
H  2.5113701820 1.5559201241 2.0575902462
