19

N  1.0031801462 -0.0738900080 -0.1046000049
C  2.4708101749 -0.0160700008 -0.0989200100
C  2.9714503288 1.4450401068 0.0278000012
N  2.2584903240 2.1333401203 1.1245200634
C  4.4953403473 1.4913600683 0.2290600240
C  5.0526304245 2.9135701656 0.2506900132
O  4.5928707123 3.6254503727 1.3906201124
H  0.7092100978 -1.0443201065 -0.2164800167
H  0.6517600417 0.4214800298 -0.9248400927
H  2.8587100506 -0.4670500457 -1.0191200972
H  2.8343300819 -0.6134900451 0.7450301051
H  2.7235202789 1.9742702246 -0.9011800885
H  2.4579501152 1.6295701265 1.9936301708
H  1.2629801035 1.9172600508 0.9779500365
H  4.9814705849 0.9377000332 -0.5837200880
H  4.7545504570 0.9874900579 1.1694701910
H  4.7613205910 3.4666304588 -0.6481000781
H  6.1451907158 2.8872702122 0.2932400405
H  3.6229603291 3.4640302658 1.4314501286
