15

C  1.0024000406 0.0809600055 0.1296700090
C  2.4946701527 -0.1257200092 -0.0311200023
O  3.2456202507 0.9320600629 0.6323900819
C  4.1185102463 -0.0581400022 1.2439100742
C  3.1434001923 -1.1869201660 0.8818700910
N  3.8190903664 -2.2216103077 0.0868700072
H  0.4520800412 -0.7671501040 -0.2892100215
H  0.6794500351 0.9842200279 -0.3974100351
H  0.7194600105 0.1828700155 1.1819900274
H  2.7814702988 -0.1696500182 -1.0902000666
H  5.1004304886 -0.0591200031 0.7589100599
H  4.2401103973 0.1217800081 2.3157300949
H  2.5355000496 -1.5547901392 1.7127701044
H  4.3868403435 -1.8638001680 -0.6818800569
H  3.1796603203 -2.8990001678 -0.3276600242
