15

O  1.3190201521 1.0970799923 -1.8754801750
N  2.4248101711 1.5916000605 -1.1803700924
C  3.1466400623 0.6233200431 -0.5331699848
N  2.7497403622 -0.5611700416 -0.2249900252
C  4.5141706467 1.0195300579 -0.1288700104
C  5.6874103546 0.1145300120 -0.4264200330
C  5.5404005051 1.4075100422 -1.1698901653
H  0.5824800730 1.2542901039 -1.2532701492
H  2.9736001492 2.2734100819 -1.7012901306
H  1.8045500517 -0.6621900797 -0.6076100469
H  4.5504803658 1.5430201292 0.8219600320
H  5.4920606613 -0.8112000823 -0.9573701024
H  6.4636402130 0.0353600048 0.3253000379
H  6.2288804054 2.2091901302 -0.9293100834
H  5.2786502838 1.3436300755 -2.2199902534
