16

C  -1.4893300533 0.7752800584 0.2643000185
C  -1.3663100004 -0.6856800318 -0.1537700146
C  -0.0184000023 -1.2273901701 0.2124600261
N  1.0651900768 -1.1074200869 -0.7666300535
C  1.1141501665 -0.2546800077 0.4193000197
C  0.8421400785 1.2200400829 0.3348399997
O  -0.4128700197 1.5348101854 -0.2863800228
H  -2.4256103039 1.1920500994 -0.1202300116
H  -1.4988901615 0.8853100538 1.3555400372
H  -1.5133501291 -0.7751700878 -1.2370001078
H  -2.1524302959 -1.2742501497 0.3315000236
H  -0.0540300012 -2.1417901516 0.7897101045
H  1.7179701328 -1.8882502317 -0.6855100393
H  1.8909401894 -0.4872300327 1.1369500160
H  0.8412000537 1.6539901495 1.3413602114
H  1.6325000525 1.7171001434 -0.2364400178
