16

C  0.9248200655 0.0947500020 0.1839300096
C  2.4247102737 -0.0491400063 0.0432099998
C  3.2869303226 1.0437500477 0.7046600580
C  4.0721902847 -0.0683300048 1.4115201235
N  2.9880502224 -0.9565100670 1.0318100452
C  2.9772503376 -2.3194401264 1.0631301403
O  3.7475001812 -3.0212001801 1.7057101727
H  0.4131700397 -0.8147801161 -0.1481500119
H  0.5615300536 0.9228100777 -0.4335100353
H  0.6254300475 0.2923900187 1.2192001343
H  2.7416601181 -0.3064000309 -0.9746600986
H  2.7470903397 1.7064501047 1.3911501169
H  3.8724002838 1.6564501524 0.0128300004
H  5.0266103745 -0.3346800208 0.9483000636
H  4.1869201660 0.0532000065 2.4909303188
H  2.1824603081 -2.7476701736 0.4309300482
