17

C  1.8714801073 -0.5425700545 -0.5089000463
C  3.2970802784 -0.3549800217 -0.0170400012
N  3.9444804192 0.7075700164 -0.7653200626
C  5.2413506508 1.1128600836 -0.5640299916
N  6.1491103172 0.3402600288 -0.0551100038
C  5.7158408165 2.4824700356 -0.9215400219
C  4.9783701897 3.4184603691 -1.5309700966
H  1.3751500845 -1.3383001089 0.0553500019
H  1.8562002182 -0.8135700226 -1.5701200962
H  1.2878501415 0.3764600158 -0.3893600106
H  3.8368501663 -1.2993601561 -0.1424900144
H  3.2872402668 -0.1028300077 1.0488801003
H  3.3094801903 1.4584801197 -1.0086700916
H  5.7547202110 -0.5818200707 0.1218900084
H  6.7495002747 2.6871600151 -0.6554800868
H  3.9525003433 3.2659201622 -1.8382401466
H  5.4176802635 4.3862504959 -1.7536602020
