19

C  2.3852102757 -0.6433300972 -1.4292200804
N  3.3287603855 -0.1421100199 -0.4357600510
N  3.8195502758 1.0959600210 -0.6798200011
C  4.7083802223 1.4765801430 0.1821500063
C  5.3535604477 2.8368301392 0.0632900074
C  5.0054101944 3.6617603302 1.2956200838
C  6.8599605560 2.6659903526 -0.0820400044
H  2.0781102180 -1.6602600813 -1.1682801247
H  2.8462700844 -0.6746100783 -2.4213001728
H  1.4916701317 -0.0129400017 -1.4731000662
H  2.8895401955 -0.1966300160 0.4864200354
H  5.0288105011 0.8378700614 1.0264201164
H  4.9597806931 3.3387403488 -0.8283000588
H  5.3811807632 3.1921801567 2.2118101120
H  3.9194502831 3.7628602982 1.4012101889
H  5.4346303940 4.6667203903 1.2263900042
H  7.2925806046 2.1643302441 0.7908500433
H  7.3532304764 3.6366400719 -0.1967400163
H  7.0985603333 2.0575301647 -0.9611700773
