17

C  0.9298501015 -0.0263700020 -0.0802300051
C  2.4411501884 -0.0201400016 0.1527200192
C  3.0939202309 1.2402100563 -0.4448400140
O  3.2051501274 1.1307901144 -1.8664702177
C  4.1124005318 0.0909700096 -2.2479102612
C  3.8313002586 -1.1977500916 -1.5306100845
C  3.0539202690 -1.2634100914 -0.4393100142
H  0.4662100375 0.8538000584 0.3772600293
H  0.4688500166 -0.9135701060 0.3685100377
H  0.6820900440 -0.0216900017 -1.1477401257
H  2.6206500530 -0.0159600005 1.2341300249
H  2.4946002960 2.1290900707 -0.2218900174
H  4.0917100906 1.4081101418 -0.0188500006
H  5.1401906013 0.4175600410 -2.0545001030
H  4.0031204224 -0.0557100065 -3.3269600868
H  4.2806200981 -2.0996501446 -1.9345800877
H  2.8553102016 -2.2188501358 0.0396800041
