11

O  0.9556100965 0.1043700054 -0.2123800218
S  2.3960399628 -0.0122100012 -0.1482500136
O  3.2218501568 -0.0848700106 -1.3336601257
O  2.7703702450 -1.2698800564 0.8229500651
C  3.3552401066 -0.8755900860 2.0596501827
C  3.4920401573 0.6113700271 2.0336701870
C  3.0251302719 1.1870501041 0.9213800430
H  4.3314900398 -1.3577500582 2.1609702110
H  2.7044701576 -1.1948500872 2.8785402775
H  3.9330303669 1.1612200737 2.8539302349
H  3.0129601955 2.2338702679 0.6726600528
