18

C  0.7387400270 0.3486600220 -0.6047700644
C  2.1318502426 0.1580400169 -0.0459100008
C  3.0095100403 -0.8848100901 -0.7177300453
C  3.2635102272 0.5653600693 -0.9777000546
N  2.3909401894 0.4657600224 1.3908700943
C  1.2357101440 0.4985100329 2.2753601074
C  2.1172900200 -0.7115800381 2.2206902504
H  0.7218500376 0.2485000193 -1.6959100962
H  0.3562500179 1.3452501297 -0.3626100421
H  0.0545900054 -0.4064300060 -0.2054500133
H  2.5855600834 -1.4791101217 -1.5185900927
H  3.7372403145 -1.4190900326 -0.1170100123
H  4.1504902840 1.0121800900 -0.5407600403
H  3.0182602406 0.9607601166 -1.9562301636
H  0.2301000208 0.4195700288 1.8873901367
H  1.3279101849 1.1537501812 3.1341104507
H  2.8115000725 -0.8772500753 3.0346801281
H  1.7255201340 -1.6058402061 1.7532801628
