13

N  0.9130401015 0.2767400146 -1.1739400625
C  2.1995902061 0.2631000280 -1.1665500402
N  2.9547202587 1.2446100712 -0.6169300079
C  4.3185906410 1.3509101868 -0.5513800383
C  5.0225801468 2.3474001884 0.0000000000
C  6.4285802841 2.3474001884 0.0000000000
C  7.6187405586 2.3474001884 0.0000000000
H  0.5666500330 -0.5673400164 -1.6437501907
H  2.7746801376 -0.5659400225 -1.6169601679
H  2.4163200855 2.0011501312 -0.2066400200
H  4.8357305527 0.5105700493 -1.0129500628
H  4.5161399841 3.1889703274 0.4615000486
H  8.6840505600 2.3479802608 0.0003200000
