14

O  2.0991201401 -0.8605600595 0.7319700718
C  3.1276903152 -0.4270600379 -0.1406600177
C  3.0688202381 1.0604000092 -0.1936400086
C  4.1064600945 1.8582001925 0.0956000090
C  3.9526302814 3.3241801262 0.0244900025
N  4.9410505295 4.1180100441 0.2814700305
O  4.5094504356 5.4415307045 0.1342400014
H  2.1666800976 -1.8284001350 0.7874100804
H  2.9475700855 -0.8467900753 -1.1347501278
H  4.0888504982 -0.7921500802 0.2341100276
H  2.1088900566 1.4831100702 -0.4800800383
H  5.0779204369 1.4825301170 0.3921800256
H  2.9566402435 3.7073903084 -0.2601500154
H  5.3111505508 5.9482903481 0.3612900078
