16

N  0.9883900881 0.0041200006 0.0930300057
C  2.4560601711 -0.0055900007 -0.0208700001
C  2.9589202404 -1.3381900787 -0.5994400382
O  2.6486401558 -1.4664101601 -1.9850802422
C  3.1615500450 -0.3703400493 -2.7294902802
O  2.6395101547 0.8805100918 -2.3035502434
C  2.9492402077 1.1285400391 -0.9341300726
H  0.6653701067 0.8849700093 0.4849100411
H  0.6715300679 -0.7450700998 0.7030400634
H  2.8651602268 0.1326200068 0.9862300754
H  2.5118901730 -2.1874802113 -0.0709300041
H  4.0461401939 -1.4216401577 -0.4744200408
H  4.2580804825 -0.3607800305 -2.6904003620
H  2.8712003231 -0.5132600069 -3.7743501663
H  4.0356502533 1.2506800890 -0.8369500637
H  2.4951000214 2.0844902992 -0.6505900025
