13

C  -1.4864001274 0.7716300488 0.5434400439
C  -1.1166101694 -0.4380700290 -0.2750700414
C  -0.1928900182 -1.4471400976 0.2613600194
N  1.0684601068 -1.2211101055 0.4378700256
N  1.6426801682 0.0273000021 0.1391300112
C  0.9355000854 1.0052701235 -0.3255000412
C  -0.5049400330 0.8915200830 -0.5933700204
H  -2.4751002789 1.1939901114 0.4075400233
H  -1.1101100445 0.8415500522 1.5588901043
H  -1.8599101305 -0.8190200925 -0.9658300877
H  -0.6061000228 -2.4362702370 0.5150900483
H  1.4213600159 1.9706301689 -0.5395700336
H  -0.8438200951 1.3893400431 -1.4944500923
