14

C  1.1017701626 1.5670402050 0.1626100242
N  2.2449102402 0.9871900678 0.0279400032
O  3.2550201416 1.9611601830 0.0922500119
C  4.5154805183 1.3272100687 -0.1407900155
C  5.5816907883 2.3702001572 -0.1145400107
C  6.4290804863 2.6017901897 1.1082900763
O  6.9178805351 1.8574001789 -0.0178200006
H  0.1769700050 0.9699300528 0.1411600113
H  0.9922600985 2.6564903259 0.2996800244
H  4.4999704361 0.8448700309 -1.1243600845
H  4.6831803322 0.5634200573 0.6272400618
H  5.4032402039 3.1852402687 -0.8024700284
H  6.2075505257 2.0507502556 2.0137701035
H  6.8403906822 3.5899803638 1.2684700489
