17

C  0.9602000713 0.0863100067 -0.1652500182
C  2.4327201843 0.0538300015 0.0514100008
N  3.2711803913 -0.8122900724 -0.7607100606
C  3.3824102879 0.6410000324 -0.9713600874
C  4.6885805130 1.3242301941 -0.5888400674
C  5.9547104836 1.1429901123 -1.3915700912
N  5.2111306190 2.3923201561 -1.4491900206
H  0.5427200794 1.0134900808 0.2401000261
H  0.4839400351 -0.7538200617 0.3505100012
H  0.6930800676 0.0302900020 -1.2260501385
H  2.6969902515 0.1215200052 1.1000401974
H  2.7498900890 -1.2328001261 -1.5315002203
H  2.9387402534 0.9936400652 -1.9015700817
H  4.8274903297 1.4882701635 0.4780600071
H  5.9124803543 0.5141400099 -2.2721202374
H  6.9016704559 1.1537799835 -0.8678100705
H  5.6655106544 3.1125402451 -0.8858500719
