16

C  1.0439901352 -0.0311500020 -0.0193700008
C  2.5347802639 -0.0392800048 -0.0515400060
C  3.2618803978 -0.6372500062 -1.2273601294
C  3.2805001736 0.8592500687 -1.0127800703
C  4.5257802010 1.5602400303 -0.5553500652
C  5.2684106827 1.8715600967 -1.7822700739
N  5.8639802933 2.1284601688 -2.7460501194
H  0.6871300936 0.7664100528 0.6396000385
H  0.6708300114 -0.9850400686 0.3660900295
H  0.6109300256 0.1279900074 -1.0123900175
H  2.9526503086 -0.2099600136 0.9348300695
H  2.6817901134 -1.0194200277 -2.0610401630
H  4.1633505821 -1.2073301077 -1.0294901133
H  2.6823902130 1.4741700888 -1.6804600954
H  5.1253504753 0.9325200319 0.1121800095
H  4.2620201111 2.4766201973 -0.0180400014
