19

C  0.9647700787 -0.0216800030 0.0408200026
C  2.4802000523 0.0009700001 0.0174500011
C  3.1668202877 1.0585500002 0.9172000885
C  4.2489800453 0.0033100003 1.2450001240
O  5.4589304924 0.0724100024 0.4623800218
C  3.2068402767 -1.0865200758 0.8628400564
C  3.6920902729 -2.3135099411 0.1148900092
H  0.5855100155 -0.8864800334 -0.5120800138
H  0.5598000288 0.8809400797 -0.4264200330
H  0.5770100951 -0.0769700035 1.0632901192
H  2.8467102051 0.0495200045 -1.0178200006
H  2.5832502842 1.3685300350 1.7921501398
H  3.5168702602 1.9533002377 0.3944900036
H  4.5165801048 -0.0185400005 2.3071000576
H  5.1720104218 0.1531400084 -0.4625400305
H  2.6243102551 -1.3995701075 1.7417401075
H  4.2554802895 -2.0479202271 -0.7853000164
H  2.8443403244 -2.9345600605 -0.1918800175
H  4.3397006989 -2.9211900234 0.7538300753
