18

C  0.8246400952 -0.4181700349 0.1183400080
C  2.3179302216 -0.1391600072 -0.0620700046
N  2.9088602066 -1.1592401266 -0.9277400970
C  2.6787302494 1.2087701559 -0.6243200302
C  1.8396801949 2.1886701584 -0.9975600243
C  2.3017699718 3.4517703056 -1.5228002071
C  1.4713301659 4.4292302132 -1.9040101767
H  0.3703700304 0.3090800047 0.8005700707
H  0.6637500525 -1.4126200676 0.5504100323
H  0.2826700211 -0.3781500459 -0.8336500525
H  2.7951302528 -0.2186100185 0.9221500754
H  2.4498701096 -1.1243000031 -1.8375401497
H  2.7039101124 -2.0821502209 -0.5490599871
H  3.7522203922 1.3758200407 -0.7153601050
H  0.7640400529 2.0559902191 -0.9171000719
H  3.3754901886 3.6057503223 -1.6104600430
H  0.3924500346 4.3300399780 -1.8407400846
H  1.8637001514 5.3628907204 -2.2948200703
