18

C  1.9031602144 -0.0751700029 -1.2616200447
C  2.4287102222 0.2466200143 0.1249800026
N  3.1216702461 1.5183500051 0.1498100013
C  4.4659104347 1.6233501434 -0.1408600211
O  5.1783003807 0.6617300510 -0.4081700444
C  4.9631304741 3.0552902222 -0.0994100049
C  6.4622502327 3.1545803547 -0.3188600242
H  1.3754801750 -1.0337700844 -1.2555600405
H  2.7179000378 -0.1358200163 -1.9903200865
H  1.2067800760 0.6977000237 -1.6036601067
H  3.1076703072 -0.5434400439 0.4624600410
H  1.6009801626 0.3154000342 0.8365300298
H  2.5775601864 2.3621003628 0.2733200192
H  4.7078304291 3.4866802692 0.8747600913
H  4.4406499863 3.6239802837 -0.8767700791
H  7.0086603165 2.5987002850 0.4504000247
H  6.7845001221 4.1994705200 -0.2796100080
H  6.7461905479 2.7451801300 -1.2936800718
