11

C  2.7744901180 -1.1008800268 0.4261900187
C  2.2036001682 0.0783100128 0.1522600204
C  2.9640102386 1.2748301029 0.0974800140
C  2.5657703876 2.5677702427 -0.1649200171
N  3.6357002258 3.4075002670 -0.1140400022
N  4.7170104980 2.6977603436 0.1737000197
O  4.3214206696 1.3701300621 0.3091300428
H  2.1768801212 -2.0066802502 0.4640100300
H  3.8386902809 -1.2048701048 0.6192400455
H  1.1345101595 0.1299300045 -0.0336600058
H  1.5735701323 2.9307103157 -0.3852300346
