13

C  1.0290000439 -0.1830700040 -0.4150700271
O  2.2883501053 0.0738400072 0.2120100260
C  2.9081802368 1.2474901676 -0.0536100045
N  2.4470002651 2.4408702850 -0.2662100196
N  1.1126400232 2.6511502266 -0.1427600086
C  4.3439903259 1.1854600906 -0.0511200018
C  5.5446901321 1.1295201778 -0.0470600016
H  0.9527600408 -1.2627900839 -0.5741500258
H  0.9502700567 0.3036900163 -1.3921902180
H  0.2151300162 0.1188500077 0.2493900061
H  0.9089400768 3.6368601322 -0.3260200322
H  0.8080200553 2.4817202091 0.8195900321
H  6.6085305214 1.0846401453 -0.0439600050
