13

O  0.9421400428 -0.1536000073 -0.1949200034
C  2.1489901543 0.0018400002 -0.0581400022
C  2.8071303368 1.3214701414 0.2132300138
C  4.2692904472 1.2415500879 -0.1781400144
N  4.8416805267 0.0381300040 0.4159900248
N  4.3197407722 -1.1712200642 0.0959300101
C  3.0386402607 -1.2078700066 -0.1094500124
H  2.3037402630 2.1007502079 -0.3673600256
H  2.6974601746 1.5438201427 1.2801401615
H  4.8005104065 2.1267600060 0.1855900139
H  4.3829202652 1.2080600262 -1.2679001093
H  5.8591804504 0.0247700009 0.3007600009
H  2.5300700665 -2.1533801556 -0.3532600105
