13

C  1.0182000399 0.0577200055 0.0666800067
C  2.5032601357 -0.0887800008 -0.0033300002
C  3.1502201557 -1.2545301914 0.1385000050
C  3.2800302505 1.1603500843 -0.2472900152
N  4.5699901581 1.2184801102 -0.3355300128
O  4.9523901939 2.5438201427 -0.5671800375
H  0.7386100888 0.7370401025 0.8784800768
H  0.5223000646 -0.9016900659 0.2487100214
H  0.6288300157 0.4614400268 -0.8735700846
H  2.6140501499 -2.1808500290 0.3169200420
H  4.2333302498 -1.3177500963 0.0806000009
H  2.6675403118 2.0746703148 -0.3533600271
H  5.9240102768 2.4740200043 -0.6156100035
