16

N  2.3164901733 -0.4519100487 -1.4298001528
C  2.4124603271 0.0390700027 -0.0573100038
C  3.1872804165 1.3432401419 -0.0123000015
C  2.4676401615 2.6176702976 -0.5033600330
N  3.0872402191 3.3540902138 0.6272300482
C  3.2101602554 2.0670700073 1.3507201672
H  1.7765301466 -1.3170100451 -1.4397001266
H  3.2452201843 -0.6990400553 -1.7706301212
H  2.9123201370 -0.7166300416 0.5581900477
H  1.4013000727 0.1712900102 0.3443700373
H  4.1988005638 1.2394801378 -0.4336700439
H  1.3729300499 2.5883603096 -0.4495300353
H  2.7603800297 2.9737701416 -1.4956101179
H  3.9893903732 3.7636001110 0.3825000226
H  4.1308503151 1.9535601139 1.9304701090
H  2.3564102650 1.8579301834 2.0064101219
