16

C  0.9903500676 0.0039500003 -0.0051200003
C  2.5228602886 -0.0098300008 0.0107300002
C  3.0296001434 -0.7060300708 1.2786000967
C  3.0566601753 -0.7279500365 -1.2345300913
N  3.0022401810 1.3768601418 0.0158900023
H  0.6029700637 0.5067200661 -0.8988800645
H  0.5856900215 0.5235900283 0.8712600470
H  0.5891500711 -1.0155800581 0.0005700001
H  2.6714003086 -0.2006600201 2.1829702854
H  4.1248502731 -0.7214200497 1.3170500994
H  2.6827101707 -1.7443801165 1.3207401037
H  2.7145602703 -0.2409800142 -2.1548502445
H  2.7143502235 -1.7682201862 -1.2636001110
H  4.1524105072 -0.7394200563 -1.2509400845
H  2.6992802620 1.8513801098 -0.8343600631
H  4.0218005180 1.3910402060 -0.0006700000
