20

C  0.9411901236 0.0174200013 -0.0277100019
C  2.4566302299 -0.0462400056 0.0301700030
C  3.1484103203 1.0002200603 0.9454800487
C  4.2093901634 -0.0758500099 1.2713000774
C  3.1364603043 -1.1418701410 0.9192800522
C  2.3963100910 -1.7730201483 2.0803201199
N  3.7460203171 -2.1439301968 0.0423300043
H  0.5428200364 -0.8398600817 -0.5789400339
H  0.6163500547 0.9276400805 -0.5416200161
H  0.4927800298 0.0193600003 0.9699500799
H  2.8594200611 0.0067500002 -0.9941800833
H  2.5556802750 1.3086000681 1.8144000769
H  3.5240302086 1.8946801424 0.4414500296
H  5.0799803734 -0.0284100007 0.6045000553
H  4.5683007240 -0.0728700086 2.3052902222
H  1.9709601402 -1.0145500898 2.7466003895
H  3.0654003620 -2.3973202705 2.6832602024
H  1.5726101398 -2.4046902657 1.7300300598
H  4.2870006561 -1.7662900686 -0.7352900505
H  3.0743002892 -2.7891902924 -0.3722900152
