13

C  0.9964300990 -0.0769100040 0.0539200045
C  2.1955101490 -0.0129200015 0.0302400030
C  3.6349003315 0.0655900016 -0.0049400004
C  4.2973103523 1.1123101711 0.9164600372
C  5.2958202362 -0.0139000006 1.2340201139
N  4.2350201607 -0.9773201346 0.8644000292
H  -0.0667800009 -0.1386100054 0.0817500055
H  4.0491800308 0.0655300021 -1.0218800306
H  3.6978404522 1.4303600788 1.7786102295
H  4.7147002220 1.9944300652 0.4239700437
H  6.1687602997 -0.0419100001 0.5712900162
H  5.6309204102 -0.0733900070 2.2726800442
H  4.5527801514 -1.8051201105 0.3662000299
