13

N  1.0675200224 -0.0016000001 -0.2333400100
N  2.4164400101 -0.0137500009 -0.0902100056
C  2.9599201679 1.1544500589 -0.0789200068
C  4.3904104233 1.1005600691 0.0000000000
C  5.5805702209 1.1005600691 0.0000000000
C  6.9865703583 1.1005600691 0.0000000000
C  7.6909308434 2.2370302677 0.0003000000
H  0.6812100410 -0.9030500650 0.0516100042
H  0.5940900445 0.7203200459 0.3109800220
H  2.4451103210 2.1263501644 -0.1378400028
H  7.4993405342 0.1428900063 -0.0011300000
H  7.2099804878 3.2102801800 0.0003600000
H  8.7758312225 2.2135100365 -0.0004800000
