17

C  1.1939800978 -0.2923500240 -0.0159900002
C  2.7119603157 -0.2386000156 0.0262100026
C  3.2227702141 1.1820601225 -0.1747100204
S  5.0072102547 1.2511900663 -0.1159200072
C  5.3455805779 2.9646201134 -0.4368700385
O  5.4256105423 0.9694500566 1.2435901165
O  5.5271205902 0.4884600341 -1.2350300550
H  0.8472800851 -1.3217101097 0.1174900085
H  0.8149500489 0.0719900057 -0.9760400653
H  0.7578900456 0.3190900385 0.7804600596
H  3.1181402206 -0.8963600993 -0.7507801056
H  3.0622103214 -0.6319900751 0.9873800278
H  2.8473601341 1.8473000526 0.6088100672
H  2.9161002636 1.5698801279 -1.1516401768
H  4.9471106529 3.2245402336 -1.4191700220
H  6.4278006554 3.1061601639 -0.4234900177
H  4.8789401054 3.5688502789 0.3430900276
