15

C  0.7185900211 -0.4780100286 0.1922900081
C  2.1253199577 -0.7346900702 -0.2780300379
C  2.4309201241 -1.7936601639 -1.0472500324
C  3.1607303619 0.2893800139 0.1297100186
C  3.4368803501 0.2894400060 1.6243400574
O  3.7115104198 -0.9338000417 2.1368501186
O  3.4632902145 1.3015701771 2.3106701374
H  0.3730400205 0.4985900521 -0.1619400084
H  0.6705400348 -0.4894700348 1.2855501175
H  0.0180900004 -1.2329901457 -0.1790200174
H  1.6717600822 -2.5106003284 -1.3517301083
H  3.4374902248 -1.9671002626 -1.4164401293
H  2.8129804134 1.2879700661 -0.1583900154
H  4.1170701981 0.1248600036 -0.3797900379
H  3.6407301426 -1.6460400820 1.4707901478
