19

C  2.1605103016 -0.5558100939 -1.3161300421
N  2.2937700748 0.0707900077 -0.0059900004
C  3.2479703426 1.1877701283 -0.0915200040
C  2.5423800945 2.4872300625 -0.5446300507
N  3.1198000908 3.1981804371 0.6246400476
C  4.3839602470 3.8409903049 0.2674300373
C  3.3613703251 1.8895701170 1.2829101086
H  1.4294201136 -1.3678101301 -1.2572901249
H  3.1107702255 -0.9816600680 -1.6538001299
H  1.8012001514 0.1550200135 -2.0666501522
H  2.5639202595 -0.6401900649 0.6735200882
H  4.2107701302 0.9710700512 -0.5682400465
H  1.4452601671 2.4645302296 -0.5162500143
H  2.8392901421 2.8602302074 -1.5315401554
H  4.8821401596 4.2074203491 1.1719100475
H  4.1901803017 4.7121806145 -0.3682600558
H  5.0858402252 3.1866703033 -0.2623800039
H  4.3268804550 1.7740601301 1.7883601189
H  2.5771200657 1.6393901110 2.0090501308
