17

C  1.0000001192 0.0000000000 0.0000000000
C  2.4440002441 0.0000000000 0.0000000000
C  3.6341602802 0.0000000000 0.0000000000
C  5.0781602859 0.0000000000 0.0000000000
C  5.6223807335 1.4099601507 -0.0451000035
C  5.4830803871 2.1424000263 -1.3515900373
C  6.2326903343 1.9732902050 1.0121800900
H  0.6061200500 1.0209400654 0.0105400011
H  0.6059100032 -0.5195300579 0.8788201213
H  0.6059499979 -0.5012000203 -0.8894200921
H  5.4659204483 -0.5626900792 -0.8575100899
H  5.4455804825 -0.5219900012 0.8922200799
H  5.9628906250 1.5764900446 -2.1569900513
H  5.9516305923 3.1320202351 -1.3188101053
H  4.4281206131 2.2850403786 -1.6063702106
H  6.3414502144 1.4437301159 1.9543200731
H  6.6307806969 2.9826104641 0.9678601027
