14

O  0.5876900554 1.2660200596 0.1502500027
N  1.8129701614 0.6118800640 -0.0263400022
C  2.7697603703 1.4711199999 0.1114300117
C  4.1853003502 1.0768501759 -0.0215000007
C  5.1459102631 1.9983501434 0.1191900074
C  6.5499305725 1.6806200743 -0.0011700001
C  7.5173306465 2.5953500271 0.1301500052
H  -0.0541400015 0.5423700213 0.0239900015
H  2.5679502487 2.5346901417 0.3333800137
H  4.3827705383 0.0326000042 -0.2346800268
H  4.8895602226 3.0347602367 0.3315400183
H  6.8247904778 0.6481400728 -0.2087200135
H  7.3060202599 3.6398503780 0.3366300166
H  8.5609607697 2.3106403351 0.0309400018
