15

C  0.8972600698 -0.4376300275 0.3711800277
C  2.3173902035 -0.1485000104 -0.0569700077
C  3.1539404392 -1.1886801720 -0.2371000201
N  2.6902000904 1.1835600138 -0.2327700108
O  3.9860303402 1.4634301662 -0.6911100149
C  1.9416601658 2.3292601109 -0.0753300041
N  2.3433003426 3.5493602753 -0.2245700210
H  0.6829300523 0.0379400030 1.3341100216
H  0.7081500292 -1.5102001429 0.4898000360
H  0.1888600141 -0.0641800016 -0.3756700456
H  2.8343100548 -2.2145299911 -0.0846400112
H  4.1906304359 -1.0429800749 -0.5230900645
H  3.8819003105 1.3676800728 -1.6556001902
H  0.8902200460 2.1491701603 0.1957600266
H  3.3480100632 3.4961001873 -0.4383800328
