15

O  0.9459500909 0.1398800015 -0.7563900352
C  2.2758102417 0.0908300057 -0.2018900216
C  3.2545101643 -0.6887800694 -1.0423901081
C  3.3078103065 0.8107200861 -1.0306100845
C  2.3172702789 0.0847900063 1.3258100748
C  1.4161701202 0.9380700588 2.1828403473
O  1.1420400143 -0.4511600435 1.9627600908
H  0.3438800275 -0.3835800290 -0.1954200268
H  2.8803400993 -1.1762800217 -1.9347201586
H  4.0459103584 -1.2305800915 -0.5391800404
H  4.1352300644 1.2867401838 -0.5192800760
H  2.9662201405 1.3395601511 -1.9127202034
H  3.2718904018 -0.1868400127 1.7687001228
H  0.7782800198 1.6632001400 1.6930102110
H  1.7672702074 1.2303600311 3.1638903618
