18

C  2.9311802387 -0.8757200837 -0.2172300220
N  2.8533601761 0.1580200195 0.8112600446
C  3.1599302292 1.5019501448 0.2577600181
C  2.5982999802 2.5559101105 1.2371701002
O  3.1318502426 2.3578302860 2.5495700836
C  4.6833100319 1.7008001804 0.0872700065
O  5.3832602501 1.3783301115 1.2919800282
H  2.6160202026 -1.8325700760 0.2091800123
H  3.9532403946 -1.0007500648 -0.5912700891
H  2.2654600143 -0.6559700370 -1.0599399805
H  3.5870802402 -0.0500900038 1.4972500801
H  2.6604101658 1.6516001225 -0.7074900270
H  1.5060800314 2.4975900650 1.2987600565
H  2.8640201092 3.5677001476 0.9138001204
H  2.7458801270 1.5076100826 2.8402502537
H  4.9170703888 2.7368803024 -0.1795000136
H  5.0752105713 1.0572700500 -0.7060400248
H  4.9476804733 1.8937201500 2.0046701431
