18

C  2.5441601276 -0.9703800678 -0.4190400243
N  2.2027802467 0.2894900143 0.2288200259
C  3.3353502750 1.2293101549 0.2408900261
C  3.5315802097 2.1584103107 -0.9264500737
C  3.1077203751 2.7155702114 0.4022500217
C  1.7363101244 3.2828800678 0.5756700635
O  4.1261601448 3.4155302048 1.1359500885
H  1.6714001894 -1.6301600933 -0.4195700288
H  3.3567802906 -1.4814001322 0.1070600078
H  2.8402802944 -0.8102800846 -1.4605501890
H  1.9038901329 0.1008500084 1.1865401268
H  4.2353801727 0.8444000483 0.7181600928
H  2.8055002689 2.1276402473 -1.7301001549
H  4.5473203659 2.3345501423 -1.2573601007
H  0.9967100620 2.7962100506 -0.0697400048
H  1.7350901365 4.3509702682 0.3318300247
H  1.4086201191 3.1710500717 1.6145801544
H  4.2332301140 4.3220705986 0.8007400632
