13

C  0.9993600249 0.0041600000 -0.0112600010
N  2.4613101482 0.0111100003 -0.0143200010
C  2.9733300209 -0.7123900652 -1.1769801378
C  2.9658603668 1.3832201958 -0.0034300003
H  0.6137600541 0.5097100139 0.8815000653
H  0.6191900373 -1.0232900381 0.0219600014
H  0.5797000527 0.4984100461 -0.8954200745
H  2.6304903030 -1.7533501387 -1.1643701792
H  4.0687899590 -0.7432700992 -1.1596499681
H  2.6564102173 -0.2566800117 -2.1225101948
H  2.6155803204 1.9153602123 0.8884400129
H  2.6505403519 1.9488601685 -0.8881800771
H  4.0611100197 1.3903701305 0.0376800001
