16

C  0.8434600830 -0.1332800090 0.1821400076
C  2.3310902119 0.0137700010 0.2295300215
C  3.0537002087 1.1309401989 0.0111600002
C  2.5238201618 2.4999403954 -0.2947700024
C  4.5430002213 1.0764800310 0.1241300106
N  5.1362700462 -0.0247900020 -0.4099600315
O  5.2021603584 1.9978201389 0.5873100162
H  0.5767500401 -0.9183300734 -0.5329599977
H  0.3195000291 0.7763400674 -0.1148900092
H  0.4712200463 -0.4310700297 1.1672101021
H  2.8477902412 -0.9051100612 0.5032400489
H  1.4412001371 2.5233800411 -0.4366200268
H  2.9768602848 2.8831002712 -1.2152801752
H  2.7610702515 3.1926302910 0.5201100111
H  4.6273002625 -0.7123900652 -0.9463600516
H  6.1471700668 -0.0441100039 -0.4258200526
