20

C  2.3110101223 -0.5634900331 -1.4556101561
C  2.4307901859 -0.0065300004 -0.0464100055
C  3.2948701382 1.2459901571 -0.0390400030
C  2.6853802204 2.5441100597 -0.6171400547
N  3.1707801819 3.2914702892 0.5623900294
C  4.4624600410 3.9184300900 0.2808100283
C  3.3563201427 2.0207002163 1.2960501909
H  1.7052700520 -1.4746201038 -1.4551801682
H  3.2969102859 -0.8078500628 -1.8663901091
H  1.8387501240 0.1603200138 -2.1280202866
H  2.8788404465 -0.7668000460 0.6027300358
H  1.4301100969 0.2061500251 0.3467700183
H  4.2990303040 1.0395700932 -0.4365100265
H  1.5904500484 2.5363101959 -0.6878100634
H  3.0798003674 2.8553102016 -1.5908300877
H  4.8882803917 4.3214402199 1.2058601379
H  4.3232703209 4.7617607117 -0.4037300348
H  5.2003602982 3.2406103611 -0.1636300087
H  4.2898802757 1.9127000570 1.8602302074
H  2.5268001556 1.8075301647 1.9821301699
