19

C  2.1807801723 -0.0247900020 1.6427000761
C  2.4628403187 0.2123900205 0.1677700132
N  3.0175201893 1.5438400507 -0.0532000065
C  2.0851202011 2.6627900600 -0.0325100012
C  4.3667802811 1.7821501493 0.0634000078
N  4.9308900833 2.9381804466 0.0709600076
C  6.3821706772 2.8678300381 0.1998100132
H  1.7952201366 -1.0371100903 1.7967300415
H  1.4362300634 0.6823100448 2.0213000774
H  3.0890703201 0.0905500054 2.2432501316
H  1.5396901369 0.0879900083 -0.4106500447
H  3.1591401100 -0.5516600609 -0.2000400126
H  1.0853201151 2.3536903858 -0.3551000059
H  2.4113900661 3.4575202465 -0.7111300826
H  2.0072901249 3.0740802288 0.9786100984
H  4.9554600716 0.8498800993 0.1497800052
H  6.7794609070 3.8787600994 0.3349100351
H  6.8363909721 2.4483699799 -0.7044200897
H  6.6853604317 2.2750501633 1.0702601671
