16

O  1.4280501604 0.5191000700 -1.2728101015
C  2.1468300819 0.1302600056 -0.1043300107
C  3.2620501518 1.0906000137 0.1683400124
N  3.7751302719 1.9451102018 -0.9052900672
C  3.0189902782 2.5807001591 0.1748800129
C  3.7779104710 3.4172501564 1.1030200720
C  3.4376702309 3.6896903515 2.3693900108
H  0.7698400617 -0.1773500144 -1.4371100664
H  2.5520503521 -0.8729200959 -0.2684200108
H  1.4553000927 0.1008500084 0.7426800728
H  3.9981904030 0.6855200529 0.8519901037
H  3.1651601791 1.8237600327 -1.7218401432
H  2.0366902351 2.9544901848 -0.0995500088
H  4.6962304115 3.8549103737 0.7160200477
H  2.5317101479 3.2870903015 2.8113100529
H  4.0642104149 4.3252201080 2.9861702919
