13

C  1.9867701530 -0.1714300066 -0.0891900063
C  0.6904900670 -0.7985600233 0.2116300017
O  -0.4078000188 -1.3028600216 -0.5825800300
C  -1.5076701641 -0.4808200300 -0.2747600079
C  -1.3845100403 0.7570700645 0.2548800111
O  -0.1420800090 1.3672699928 0.5080800653
C  0.8111600876 0.6782800555 -0.3328900337
H  2.5345101357 -0.5483700037 -0.9458000660
H  2.6315503120 0.0976100117 0.7392100692
H  0.5857800245 -0.9802001119 1.2829201221
H  -2.4403302670 -0.9702600837 -0.5161600113
H  -2.2015500069 1.4034701586 0.5362900496
H  0.6913400292 0.8802700639 -1.3997800350
