14

C  0.9763600230 -0.1471900195 -0.0139500014
C  2.4818801880 0.0581700020 0.0244300030
C  2.8353302479 1.4936901331 0.0089700008
C  3.1166601181 2.4342300892 0.9729501009
N  3.3848202229 3.6431202888 0.3835400343
C  3.2584502697 3.3927502632 -0.9004300833
O  2.9264101982 2.1088800430 -1.2094000578
H  0.7383601069 -1.2155799866 -0.0008600001
H  0.5398700237 0.2873000205 -0.9199500680
H  0.4903600514 0.3199500442 0.8495900631
H  2.9417502880 -0.4462900162 -0.8331600428
H  2.8898203373 -0.4121400416 0.9265500903
H  3.1389503479 2.3069901466 2.0462200642
H  3.3832902908 4.0734801292 -1.7296202183
