17

C  0.9527301192 0.1695300192 0.2019200176
C  2.4012100697 -0.1558800042 -0.1219500080
O  2.4933602810 -1.5112900734 -0.6020500660
C  2.6995701790 -1.4952501059 -2.0244002342
C  3.2289702892 -0.1462500095 -2.3637101650
C  2.3265900612 1.0487600565 -2.4910302162
C  2.9976301193 0.7202000618 -1.1799001694
H  0.8381700516 1.2140201330 0.5058000684
H  0.5940400362 -0.4748200178 1.0116500854
H  0.2960900068 -0.0190600026 -0.6536600590
H  2.9986300468 -0.0961700082 0.7946400642
H  3.4052700996 -2.2906801701 -2.2802803516
H  1.7449700832 -1.6948901415 -2.5195302963
H  4.2021803856 -0.1492000073 -2.8307003975
H  2.6962602139 1.9045600891 -3.0454502106
H  1.2617901564 0.8849100471 -2.6014201641
H  3.8040802479 1.3464301825 -0.8244500756
