19

C  2.4001202583 -0.3911400437 -1.0962101221
N  2.4051902294 0.2915300131 0.1876100153
C  3.2195303440 1.5165700912 0.1845100224
C  4.7192206383 1.2375301123 0.0526400022
C  5.6772503853 2.3391201496 0.5597400665
C  6.5048708916 1.1667901278 1.1130200624
N  5.2594003677 0.3663700223 1.1406900883
H  1.7043501139 -1.2344501019 -1.0532000065
H  3.3854103088 -0.7907900810 -1.3526201248
H  2.0620100498 0.2718100250 -1.8984301090
H  2.7780702114 -0.3255200386 0.9119000435
H  3.0179603100 2.0374503136 1.1283900738
H  2.8879401684 2.1922001839 -0.6124900579
H  4.9935002327 0.8812600970 -0.9505701065
H  5.2642602921 2.9949703217 1.3352401257
H  6.1610608101 2.9483504295 -0.2077700198
H  7.2601304054 0.7828600407 0.4172400236
H  6.9677205086 1.3315000534 2.0893502235
H  5.3773703575 -0.6103800535 0.8774600625
