19

C  2.6782901287 -0.5902500153 -0.0202900022
C  1.6098901033 0.4690700173 0.2268200070
N  2.1727402210 1.6528201103 0.9144600630
C  1.2122200727 2.7761101723 0.8191100359
C  1.3673400879 3.5268003941 -0.4977100492
N  2.6238501072 1.3933601379 2.1763801575
C  3.6756901741 2.0804603100 2.4775803089
H  2.2450201511 -1.4387800694 -0.5598400235
H  3.0966603756 -0.9709100723 0.9168200493
H  3.4969303608 -0.1885700077 -0.6266900897
H  0.7937200665 0.0370500013 0.8195700645
H  1.1942301989 0.7448100448 -0.7484400272
H  1.4065301418 3.4966104031 1.6239600182
H  0.1793200225 2.4343299866 0.9578400850
H  2.3899800777 3.9026503563 -0.6142800450
H  0.6909200549 4.3879203796 -0.5193900466
H  1.1330901384 2.8986203671 -1.3622701168
H  4.1361703873 1.9622001648 3.4705202579
H  4.1570205688 2.7964301109 1.7877401114
