17

O  2.8008601665 -0.4694300294 -0.9192800522
C  2.8673002720 -0.2170500308 0.4847000241
C  3.4396600723 1.1899200678 0.7621600628
C  3.1931903362 1.5626101494 2.2084901333
C  2.4853701591 2.6292102337 2.6044902802
C  4.9031300545 1.2559500933 0.3576400280
C  5.9602603912 1.6114301682 1.1009701490
H  2.4657602310 -1.3760701418 -1.0258400440
H  3.4839403629 -0.9964901209 0.9476200938
H  1.8486601114 -0.3034400344 0.8790200949
H  2.9135804176 1.9001301527 0.1086400151
H  3.6236903667 0.9096700549 2.9654300213
H  2.0384202003 3.3140001297 1.8898401260
H  2.3457002640 2.8437902927 3.6593403816
H  5.0879402161 0.9889200926 -0.6836700439
H  5.8714003563 1.9085302353 2.1403303146
H  6.9569306374 1.6199401617 0.6697199941
