13

C  -1.2682800293 -0.0000900000 -0.1299600154
C  -0.3824200332 -1.2233901024 0.1043700054
C  0.9938300848 -0.6692100763 -0.0517500043
C  0.9943600893 0.6675700545 -0.0445500016
C  -0.3831400275 1.2199901342 0.1168600097
H  -1.6228001118 0.0053400001 -1.1690601110
H  -2.1552402973 -0.0035900003 0.5121600628
H  -0.5921800137 -2.0085802078 -0.6279900074
H  -0.5162900686 -1.6309500933 1.1116400957
H  1.8805501461 -1.2839200497 -0.1275600046
H  1.8808501959 1.2836000919 -0.1143200099
H  -0.5163100362 1.6173801422 1.1290000677
H  -0.5921600461 2.0129201412 -0.6070200205
