19

C  0.8896000385 0.0395000055 -0.2410000265
C  2.3771102428 0.0071100001 0.0138900010
C  2.7224702835 -0.0029000002 1.4837601185
C  3.2978701591 -0.7668800354 -0.9107700586
N  2.7709400654 -1.5756601095 -2.0108401775
C  3.2582302094 0.7417700291 -0.9779700637
N  4.4056606293 1.5373500586 -0.5372600555
H  0.6446400285 0.1602800041 -1.3014401197
H  0.4326100349 0.8784300685 0.2954500020
H  0.4231800437 -0.8866900802 0.1113300100
H  3.7947201729 -0.1281900108 1.6655501127
H  2.2086203098 -0.8298000693 1.9862701893
H  2.4059402943 0.9335000515 1.9544502497
H  4.1870603561 -1.2069801092 -0.4622400403
H  2.0752201080 -1.0702700615 -2.5557603836
H  2.3097703457 -2.4112801552 -1.6544401646
H  2.7652702332 1.1738700867 -1.8472301960
H  4.9878902435 1.0303701162 0.1267900169
H  4.0954203606 2.3849701881 -0.0637100041
