16

C  1.0000001192 0.0000000000 0.0000000000
C  2.4440002441 0.0000000000 0.0000000000
C  3.6341602802 0.0000000000 0.0000000000
C  5.0656003952 0.0176500026 0.0576500036
N  5.8285107613 -0.6734500527 -0.9838100672
C  5.8286004066 0.7836900353 -0.9951400757
C  7.0729002953 1.5165001154 -0.6302900314
H  0.6059700847 1.0208700895 0.0116400011
H  0.6059200764 -0.5205400586 0.8782400489
H  0.6060000658 -0.5003100634 -0.8899500370
H  5.4999103546 -0.0413300022 1.0502101183
H  5.1911306381 -1.0474300385 -1.6878302097
H  5.2885203362 1.2622500658 -1.8036501408
H  7.6252202988 1.0243201256 0.1768900156
H  6.8257503510 2.5307202339 -0.3014200032
H  7.7350807190 1.5934801102 -1.4982200861
