19

C  1.0830701590 0.0237900019 0.1696800143
C  2.5950701237 -0.0289600026 -0.0447300039
C  2.9178502560 -0.7584500909 -1.3484100103
C  3.1594002247 1.3901400566 -0.0940200090
C  3.1829702854 2.1828403473 1.2235001326
O  4.5742802620 2.5325000286 1.0274200439
C  4.6880607605 1.5411900282 -0.0217200015
H  0.8380000591 0.5185300112 1.1153299809
H  0.6582000256 -0.9850200415 0.1992500126
H  0.5860300064 0.5801800489 -0.6323200464
H  3.0457201004 -0.5853400230 0.7865800261
H  2.4966301918 -0.2343100160 -2.2128400803
H  2.5136303902 -1.7758800983 -1.3356901407
H  3.9998703003 -0.8294301033 -1.5004800558
H  2.7297501564 1.9787400961 -0.9165200591
H  3.0510601997 1.6043701172 2.1431000233
H  2.5391702652 3.0661802292 1.2457400560
H  5.1573505402 1.9498701096 -0.9205400348
H  5.2485604286 0.6675900221 0.3249600232
