11

N  1.0137900114 -0.2042300105 0.3182200193
C  2.1601002216 -0.0945500061 0.1661800146
C  3.5841002464 0.0856200084 -0.0343100019
C  4.2658104897 1.1296900511 0.8584900498
C  5.2097501755 -0.0068100006 1.2386400700
O  4.3601698875 -0.9816200733 0.5872100592
H  3.8587002754 0.1724200100 -1.0928500891
H  3.6686403751 1.5122700930 1.6918201447
H  4.7328901291 1.9629400969 0.3274100125
H  6.2001004219 0.0277700014 0.7748800516
H  5.3036503792 -0.1991100162 2.3106002808
