18

C  1.1707900763 -0.1700800061 -0.3341700137
O  2.5660500526 0.1051900089 -0.2983300388
C  2.9648501873 1.4087700844 -0.0937200040
C  2.1511301994 2.4684801102 0.0449900031
C  4.4695401192 1.5673201084 -0.0579700023
C  5.0975108147 0.8287400603 1.1303100586
N  6.5511307716 1.0079400539 1.1594500542
H  1.0446001291 -1.2462700605 -0.4855700433
H  0.6910100579 0.3466500342 -1.1714800596
H  0.6946100593 0.0938100070 0.6157600284
H  1.0706601143 2.3973603249 0.0141600007
H  2.5575401783 3.4651303291 0.1953100264
H  4.7437701225 2.6294403076 -0.0112200016
H  4.8838305473 1.1822501421 -0.9987500906
H  4.8755707741 -0.2432500124 1.0761899948
H  4.6782107353 1.2047200203 2.0702900887
H  6.9535202980 0.6156400442 0.3086700439
H  6.9349908829 0.4619400203 1.9299900532
