15

O  2.9345102310 -1.1278800964 -0.4754900336
C  2.3211603165 0.0383000039 0.0739100054
C  3.3081502914 1.2109800577 0.0600000061
C  2.8029501438 2.4039902687 0.8352000713
C  2.7076301575 3.4707403183 0.0253300015
C  3.1234102249 3.1015803814 -1.3038500547
C  3.4766902924 1.8086701632 -1.3172399998
H  2.2564401627 -1.8248901367 -0.4831800461
H  2.0223000050 -0.1996100098 1.1008700132
H  1.4175401926 0.2595000267 -0.5060600638
H  4.2864804268 0.8946800828 0.4404100478
H  2.5714402199 2.3956201077 1.8903100491
H  2.3845801353 4.4618000984 0.3069800138
H  3.1473002434 3.7790904045 -2.1439101696
H  3.8377103806 1.2573200464 -2.1730799675
