16

C  0.9323100448 0.1319100112 -0.5500900149
N  2.2021603584 0.2582100034 0.1217600033
C  2.9938700199 1.3774400949 0.0775500014
C  2.3627300262 2.7435402870 -0.0892200023
N  4.2704501152 1.1762800217 0.1553900093
C  5.1694808006 2.3177003860 0.0817400068
H  0.5612800717 -0.8923600912 -0.4455000460
H  1.0334300995 0.3509000242 -1.6174501181
H  0.1841000021 0.7999600172 -0.1145100147
H  2.7764902115 -0.5802600384 0.0940100029
H  1.3090701103 2.7303602695 0.1985400170
H  2.4415302277 3.0481302738 -1.1365300417
H  2.8636701107 3.4822802544 0.5409800410
H  6.1979503632 1.9532800913 -0.0035300003
H  5.1123399734 2.9253802299 0.9900500774
H  4.9753203392 2.9399104118 -0.7978100777
