19

C  2.3446300030 -0.4554200172 -1.3738200665
C  2.4254202843 0.1617300063 0.0166200008
N  3.3129401207 1.3268001080 0.0115700010
C  2.6123301983 2.5364501476 -0.5201200247
C  3.2388300896 3.3492801189 0.6411500573
N  4.5880203247 3.8022003174 0.2567300200
C  3.3246004581 1.9752101898 1.3540501595
H  1.7264701128 -1.3588700294 -1.3488100767
H  3.3383102417 -0.7398200631 -1.7389401197
H  1.8988001347 0.2363000214 -2.0959701538
H  2.8365800381 -0.5917600393 0.6988000870
H  1.4141201973 0.3962300420 0.3724700212
H  1.5153200626 2.5065002441 -0.4779800177
H  2.9049401283 2.8247101307 -1.5360400677
H  2.6139802933 4.1134099960 1.1086400747
H  5.0890903473 3.0675802231 -0.2513400018
H  5.1808104515 4.0230102539 1.0547500849
H  4.2256202698 1.7846301794 1.9456901550
H  2.4519402981 1.7664701939 1.9877600670
