14

O  2.2146601677 -0.5274500251 1.2032501698
C  2.2025699615 0.0387200005 -0.0955100060
C  2.8040702343 1.4128500223 -0.0457500033
N  4.0498499870 1.6458400488 -0.3101700246
O  4.2541203499 3.0315303802 -0.0942600071
C  2.9656002522 3.6552300453 -0.0512900017
C  2.0296802521 2.5821301937 0.4334700406
H  3.1531400681 -0.6325100660 1.4482300282
H  1.1688001156 0.1029500142 -0.4447900355
H  2.7700302601 -0.6030700207 -0.7753500342
H  2.7119801044 3.9931502342 -1.0620000362
H  2.9921302795 4.5201001167 0.6171800494
H  1.0323500633 2.6477003098 -0.0036300002
H  1.9692101479 2.5444402695 1.5248200893
