15

N  2.2476601601 -0.4500300288 -1.3969601393
C  2.3855102062 0.0425100029 -0.0294500031
C  3.1681702137 1.3407701254 -0.0114000011
C  2.4390802383 2.6022801399 -0.4884100258
O  2.7789502144 3.3047404289 0.7355800867
C  3.2160704136 2.0636000633 1.3399701118
H  1.6975101233 -1.3091601133 -1.3922702074
H  3.1632401943 -0.7101400495 -1.7636301517
H  2.8983602524 -0.7154300213 0.5732100010
H  1.3867901564 0.1804000139 0.4006000161
H  4.1680803299 1.2377800941 -0.4524700344
H  1.3533301353 2.5265002251 -0.6063300371
H  2.8737702370 3.0871303082 -1.3671301603
H  4.2118802071 2.1564700603 1.7825801373
H  2.5045902729 1.7264701128 2.1007001400
