17

N  0.9027100801 -0.3716000319 0.1429500133
C  2.3600301743 -0.2803900242 0.1745200157
C  2.8079903126 1.1394600868 -0.1676900238
C  4.3236303329 1.2843700647 -0.1006900072
O  4.9259204865 0.4159700274 -1.0621701479
N  6.3184704781 0.5547200441 -0.9756000638
C  6.8643608093 -0.2355600148 -1.8357601166
H  0.6231999993 -1.3338400126 0.3309900463
H  0.5686400533 -0.1592300087 -0.7967100739
H  2.7785303593 -1.0011900663 -0.5361300707
H  2.7111604214 -0.5554800034 1.1748501062
H  2.3499803543 1.8556801081 0.5249500275
H  2.4668402672 1.3906201124 -1.1797001362
H  4.6895103455 1.0319200754 0.9018300772
H  4.6041603088 2.3192901611 -0.3284700215
H  7.9604206085 -0.2741400301 -1.9281800985
H  6.2812404633 -0.8934900761 -2.5020902157
