15

C  1.8314200640 -0.3434000313 0.1801300198
C  0.9676800966 -1.5368801355 0.6371600628
C  -0.1287400126 -1.0895001888 -0.3540400267
N  -1.3973200321 -0.7719700336 0.3208800256
C  -1.3075901270 0.4806900322 0.6318000555
N  -0.1593500078 1.1613401175 0.3442200124
C  0.6009000540 0.2789800167 -0.4961800277
H  2.6143801212 -0.6258300543 -0.5327200294
H  2.2899403572 0.2392700315 0.9840301275
H  1.4007000923 -2.5213403702 0.4346700311
H  0.6849900484 -1.4929401875 1.6960002184
H  -0.2209100127 -1.6756300926 -1.2715100050
H  -2.1049902439 1.0646400452 1.1192600727
H  -0.2561900318 2.1260302067 0.0520200059
H  0.7310900688 0.6598800421 -1.5119401217
