13

C  0.9760300517 0.0208000019 0.0189500023
C  2.4742202759 -0.0419000052 -0.0015700002
O  3.1048102379 -1.0920100212 -0.0289400015
C  3.1850004196 1.2176301479 0.0000000000
C  3.7800800800 2.2483401299 0.0000000000
C  4.5020804405 3.4988803864 0.0000000000
O  3.5941004753 4.5793604851 -0.1650400162
H  0.6220100522 1.0549601316 0.0504800044
H  0.6065500379 -0.5030800104 0.9044000506
H  0.5852800608 -0.4555900395 -0.8840200901
H  5.2373104095 3.5406603813 -0.8093900681
H  5.0340805054 3.6481802464 0.9440500736
H  3.1356902122 4.4329099655 -1.0094400644
