11

C  1.0000001192 0.0000000000 0.0000000000
C  2.1901600361 0.0000000000 0.0000000000
C  3.6341602802 0.0000000000 0.0000000000
C  4.2168302536 1.1118201017 -0.7997900248
N  4.9586305618 0.7130500674 -1.7825500965
N  4.9585704803 -0.7160600424 -1.7812300920
C  4.2167801857 -1.1131401062 -0.7977800965
H  -0.0666000023 -0.0000100000 -0.0064100004
H  4.0520601273 0.0008900000 1.0093400478
H  4.0398106575 2.1652700901 -0.5449500680
H  4.0396800041 -2.1660902500 -0.5410299897
