15

C  0.9990400672 -0.0129600009 -0.0091200015
N  2.4404802322 0.0249300022 0.0006900000
C  3.2346901894 1.1337001324 0.0076900008
C  4.5359702110 0.6788200140 0.0158700012
C  5.7864708900 1.4689201117 0.0258100033
C  4.4060201645 -0.7286000252 0.0130400006
N  3.1324701309 -1.1276700497 0.0035900003
H  0.6071800590 1.0079300404 -0.0018000001
H  0.6608700752 -0.5479700565 0.8825200796
H  0.6729601026 -0.5307900310 -0.9152700305
H  2.8203802109 2.1322200298 0.0062500001
H  5.5782899857 2.5439500809 0.0119400015
H  6.3975701332 1.2308700085 -0.8510600328
H  6.3718905449 1.2485301495 0.9245300293
H  5.1885604858 -1.4768700600 0.0174400005
