16

C  0.9840301275 0.1278600097 -0.3811800480
C  2.4336202145 0.0494100042 0.0060800002
N  3.0763301849 -1.0342600346 0.3152700067
O  2.2347903252 -2.1513001919 0.2602700293
C  3.2060303688 1.3164300919 0.0172800012
C  2.7990703583 2.4503102303 0.9295001030
C  4.0545701981 1.6824901104 1.2131000757
H  0.7105600238 1.1463900805 -0.6687600017
H  0.3647800088 -0.1796800196 0.4660400152
H  0.7921600342 -0.5366900563 -1.2282299995
H  2.8372302055 -2.8763902187 0.5105200410
H  3.6057102680 1.5879400969 -0.9552300572
H  1.9611001015 2.3063201904 1.6021801233
H  2.8966002464 3.4622001648 0.5532800555
H  5.0064206123 2.1655900478 1.0257201195
H  4.0614299774 1.0097600222 2.0639600754
