15

C  0.8806000352 0.1947400123 -0.0518700033
C  2.2330303192 -0.4578800499 -0.0056500006
C  2.2030200958 -1.9456801414 0.0575500056
O  1.1556301117 -2.5833301544 0.0582000017
C  3.3704202175 0.2599000335 -0.0197200011
C  4.7342605591 -0.2180100232 0.0094900010
C  5.7866706848 0.6095899940 0.0104600005
H  0.9512100816 1.2863501310 -0.1056600064
H  0.3036500216 -0.0542200021 0.8452700377
H  0.3219800293 -0.1419100165 -0.9316800237
H  3.1732802391 -2.4604401588 0.1066700071
H  3.2728202343 1.3460700512 -0.0619100034
H  4.9331402779 -1.2852200270 0.0270400010
H  5.6795806885 1.6899001598 -0.0068200007
H  6.7982106209 0.2145500183 0.0296800025
