16

C  1.0093901157 0.0344000012 0.0193100013
C  2.4947302341 -0.0064700008 -0.0204500016
C  3.2738502026 -1.0926800966 -0.0945300013
C  4.7232398987 -0.7375300527 -0.0731800050
C  4.7064003944 0.7694900632 -0.3224400282
C  3.3061501980 1.2491000891 0.0597400069
H  0.5775300860 -0.9698800445 -0.0382400043
H  0.6221300960 0.6163200736 -0.8227200508
H  0.6655900478 0.4973000288 0.9493600726
H  2.9141201973 -2.1120102406 -0.1331900060
H  5.1593303680 -0.9804400802 0.9011600614
H  5.2830300331 -1.2603601217 -0.8538900614
H  4.8865699768 0.9693101048 -1.3869601488
H  5.4886803627 1.2899800539 0.2394400239
H  2.9540202618 2.0166401863 -0.6359000206
H  3.2861800194 1.6521000862 1.0779300928
