17

C  1.0273500681 -0.0573400036 -0.0512100011
C  2.5209603310 0.0626000017 -0.0079400009
C  3.4286103249 -0.6311300397 -1.0903201103
C  4.4896202087 -0.2665700316 0.0111200009
C  3.3819103241 -0.7943800688 0.9925700426
O  4.5096001625 1.1795600653 0.1257200092
C  3.1050703526 1.4868601561 0.1160600036
H  0.5717900395 0.3555200100 0.8550600410
H  0.7163900137 -1.1042600870 -0.1321400106
H  0.6131900549 0.4797500372 -0.9110400677
H  3.5304503441 -0.1077700034 -2.0448601246
H  3.2544102669 -1.6962801218 -1.2770100832
H  5.4699807167 -0.7418701053 -0.0040500006
H  3.2031502724 -1.8750301600 1.0038100481
H  3.4389202595 -0.4261700213 2.0216503143
H  2.8696303368 2.1181201935 -0.7456700802
H  2.8273103237 1.9787001610 1.0528700352
