11

C  1.0000001192 0.0000000000 0.0000000000
C  2.1901600361 0.0000000000 0.0000000000
C  3.6341602802 0.0000000000 0.0000000000
C  4.1903605461 1.4210801125 -0.0014200001
C  5.6577706337 1.4018901587 -0.0014000002
N  6.8184504509 1.3818300962 -0.0013700001
H  -0.0662700012 -0.0051100007 0.0000100000
H  4.0055003166 -0.5451300144 -0.8770200610
H  4.0054903030 -0.5433700681 0.8781000376
H  3.8311402798 1.9690500498 0.8780300617
H  3.8311402798 1.9672900438 -0.8819600344
