12

C  1.0885901451 0.0493200049 0.1182100102
C  2.3980700970 -0.0277800020 -0.1280200034
C  3.2700502872 -1.2573601007 -0.1262300014
C  4.6064004898 -0.6845400929 -0.4797300398
C  4.4636502266 0.6314600110 -0.6385100484
O  3.1720302105 1.0852600336 -0.4415100515
H  0.5759500265 1.0048201084 0.0820700079
H  0.5071400404 -0.8335400224 0.3580500185
H  2.9456000328 -1.9802001715 -0.8797900677
H  3.2989301682 -1.7260501385 0.8622500300
H  5.5210003853 -1.2450700998 -0.5858000517
H  5.1893601418 1.3826700449 -0.8934500813
