19

C  1.1144300699 0.0391100012 -0.3723000288
C  2.5959601402 0.1573100239 -0.6908700466
C  3.4275202751 0.3630600274 0.5754400492
C  4.8895101547 0.5193300247 0.2627400160
O  5.2459406853 1.7816201448 -0.3169100285
C  5.9274206161 -0.0925400108 1.1636501551
C  5.6987500191 -0.6563100815 -0.2106200159
H  0.5434600115 -0.1459200233 -1.2877401114
H  0.7373100519 0.9603900313 0.0830100030
H  0.9252500534 -0.7887400389 0.3188800216
H  2.7524902821 0.9900900722 -1.3859500885
H  2.9243900776 -0.7517300248 -1.2082601786
H  3.2714202404 -0.4853200316 1.2534601688
H  3.0813002586 1.2574800253 1.1080499887
H  5.2364902496 2.4884500504 0.3511400223
H  5.6017503738 -0.6852000356 2.0102100372
H  6.8480300903 0.4527800381 1.3347901106
H  6.4506502151 -0.4750300348 -0.9703800678
H  5.2133803368 -1.6215001345 -0.2909800112
