17

C  1.0114101171 0.0095100012 0.0172900017
C  2.5324201584 -0.0249900017 -0.1173200086
O  2.8797802925 -1.1808601618 -0.9224900603
C  3.2721602917 -0.6446400285 -2.1287901402
C  3.3994903564 0.6761700511 -2.1708803177
C  3.0925703049 1.2268800735 -0.8244600892
C  4.3549799919 1.7565901279 -0.1507800072
H  0.6880700588 0.8552400470 0.6315600872
H  0.6507900357 -0.9165700674 0.4783500433
H  0.5255300403 0.0806900039 -0.9623500705
H  2.9721603394 -0.1621100008 0.8777101040
H  3.4600203037 -1.3650300503 -2.9072203636
H  3.7145502567 1.2509200573 -3.0285003185
H  2.3481602669 2.0286402702 -0.8786301017
H  5.1313304901 0.9863101244 -0.0740300044
H  4.1306304932 2.1077902317 0.8619800806
H  4.7737503052 2.5981502533 -0.7139100432
