15

C  0.9975400567 0.0383400023 -0.1275700033
C  2.4823400974 0.0166900009 0.0166300014
C  3.3274602890 -0.7219400406 -0.9874500632
C  3.3444101810 0.7911000252 -0.9590600729
C  4.5323104858 1.5735300779 -0.5245100260
O  5.2632107735 1.0297400951 0.4749300480
O  4.8127002716 2.6378402710 -1.0499000549
H  0.5845400095 0.9201101065 0.3720600307
H  0.5620600581 -0.8521201015 0.3363700211
H  0.6845500469 0.0631100014 -1.1765601635
H  2.7683002949 -0.0171000008 1.0610201359
H  2.8360400200 -1.1975600719 -1.8313602209
H  4.1928701401 -1.2740801573 -0.6413100362
H  2.8248600960 1.2787601948 -1.7817301750
H  4.9111399651 0.1802700162 0.7910100222
