17

C  1.0727200508 0.0712600052 -0.1063700095
C  2.5600399971 0.1087400094 -0.0406400040
N  3.3536701202 -0.5471000075 -1.0751500130
C  3.4326903820 0.9193900824 -0.9915300608
C  2.8265202045 1.7202001810 -2.1134402752
C  4.7060899734 1.5002501011 -0.4332900345
H  0.6521400213 0.8639000654 0.5205500126
H  0.7068000436 -0.8877200484 0.2749700248
H  0.6791000366 0.1955900192 -1.1187701225
H  2.9118702412 -0.0378300063 0.9756700397
H  2.7713303566 -0.8421100378 -1.8595701456
H  2.0027201176 1.2012400627 -2.6133201122
H  3.5820901394 1.9339601994 -2.8777003288
H  2.4469401836 2.6740400791 -1.7334501743
H  5.1234207153 0.8869301081 0.3730800152
H  4.5192503929 2.5011701584 -0.0300400034
H  5.4656801224 1.5826401711 -1.2180600166
