21

C  1.2606600523 -0.4833700657 -0.2727300227
C  2.7898302078 -0.4258900285 -0.2769900262
C  3.3197202682 -0.8172000647 -1.6577200890
C  3.2622501850 0.9744501114 0.1516600102
C  4.7549204826 1.0676201582 0.2956900001
C  5.5862503052 1.7351801395 -0.7698500156
C  5.3918104172 2.4079000950 0.5594900846
H  0.8640900850 -0.2394400239 0.7183100581
H  0.9079800844 -1.4862201214 -0.5353000760
H  0.8349200487 0.2244300246 -0.9921500683
H  3.1589202881 -1.1620600224 0.4488400519
H  3.0178003311 -0.0915800035 -2.4201402664
H  2.9367201328 -1.7994401455 -1.9546301365
H  4.4122004509 -0.8803901076 -1.6600100994
H  2.8169701099 1.2170801163 1.1247701645
H  2.8944504261 1.7274001837 -0.5570500493
H  5.1763906479 0.2189700156 0.8240100741
H  5.0863304138 2.1639599800 -1.6310601234
H  6.5607504845 1.3143900633 -0.9900900722
H  6.2361903191 2.4422600269 1.2387501001
H  4.7574601173 3.2861902714 0.5980000496
