15

C  0.7406700253 -0.0524700023 0.0021700000
C  2.1648702621 0.4303800166 -0.0218500011
C  1.0368601084 1.4046300650 -0.2216600180
C  0.7000100613 2.4588403702 0.7965000868
C  0.3222500384 3.6115803719 -0.0694600046
C  0.4293500483 3.2313501835 -1.3436201811
O  0.8440501094 1.9284400940 -1.5645700693
H  0.3235300183 -0.3545000255 0.9548900723
H  0.3846600354 -0.6293200850 -0.8434300423
H  2.7723302841 0.1815300137 -0.8842300773
H  2.7091400623 0.4558000267 0.9141000509
H  1.5609201193 2.7105903625 1.4236000776
H  -0.1409200132 2.1594903469 1.4297100306
H  0.0160400011 4.5844001770 0.2787300348
H  0.2383200079 3.7990303040 -2.2378301620
