15

C  1.0000001192 0.0000000000 0.0000000000
C  2.4440002441 0.0000000000 0.0000000000
C  3.6341602802 0.0000000000 0.0000000000
C  5.0781602859 0.0000000000 0.0000000000
C  5.6383504868 1.4269500971 -0.0051200003
N  7.1021103859 1.4353400469 0.0245500021
H  0.6060100794 1.0208901167 0.0116900010
H  0.6059200764 -0.5205200315 0.8782500625
H  0.6059200764 -0.5002700686 -0.8899400830
H  5.4515705109 -0.5434600115 -0.8763900995
H  5.4467606544 -0.5361300707 0.8831200600
H  5.2609105110 1.9866302013 0.8592000604
H  5.3018302917 1.9573900700 -0.9035600424
H  7.4275803566 1.0151600838 0.8948400617
H  7.4292106628 2.4006502628 0.0373400003
