17

N  1.4579501152 -0.3888600171 -0.3937800229
C  2.7908902168 -0.0042300005 0.0690200031
C  3.6770603657 -1.0699501038 0.6556300521
C  4.0233702660 -0.4590500295 -0.6668500900
N  4.9824099541 0.6619000435 -0.7714300752
C  4.2139601707 1.8727202415 -0.4275000393
C  3.0370800495 1.4326401949 0.4553200305
H  1.1579301357 0.2074600160 -1.1640200615
H  0.7689200640 -0.2712300122 0.3484900296
H  3.3181002140 -2.0935702324 0.6516600251
H  4.2827501297 -0.8288300633 1.5196701288
H  3.9010102749 -1.0657600164 -1.5581700802
H  5.7267503738 0.5336200595 -0.0856000036
H  4.8374104500 2.6254303455 0.0649400055
H  3.8319902420 2.3112101555 -1.3568501472
H  3.3035402298 1.4968000650 1.5169100761
H  2.1640603542 2.0711700916 0.2816500068
