18

C  1.1886801720 -0.1032500118 -0.1195600107
C  2.6663901806 0.0782300010 -0.1534800082
N  3.4386804104 -0.3889500201 -1.2977601290
C  3.3615400791 1.0754200220 -1.0723701715
C  2.5804402828 1.8915700912 -2.0686800480
C  4.6331305504 1.7360202074 -0.5794100761
O  5.7046904564 1.3614400625 -1.4379701614
H  0.7243600488 0.7112000585 0.4451100230
H  0.9396800995 -1.0446701050 0.3810300231
H  0.7361500263 -0.1302200109 -1.1156700850
H  3.1082601547 -0.1092300117 0.8203600645
H  2.8288700581 -0.6690700650 -2.0692400932
H  1.7738100290 1.3254801035 -2.5451402664
H  3.2392702103 2.2521402836 -2.8660502434
H  2.1358602047 2.7613301277 -1.5741101503
H  4.8878703117 1.4225500822 0.4382600486
H  4.5462703705 2.8271503448 -0.5824699998
H  5.5651106834 0.4063700140 -1.5947500467
