15

C  1.0068200827 -0.0174400005 -0.1752600074
N  2.4551801682 0.0266400017 -0.3699000478
C  3.0374002457 1.2118401527 0.2653400302
C  4.5020403862 1.2366302013 -0.1411900222
O  5.1523203850 -0.0081000011 0.1590900123
C  4.3708901405 -1.1134601831 0.0539900027
N  3.0992503166 -1.1588600874 -0.1848800182
H  0.5342900753 0.9133300781 -0.5068500638
H  0.7511700392 -0.1881500036 0.8761900663
H  0.5687400103 -0.8271000385 -0.7690300941
H  2.5477101803 2.1335501671 -0.0665900037
H  2.9482903481 1.1358000040 1.3556400537
H  5.0282206535 2.0250701904 0.4060900211
H  4.6246304512 1.4350800514 -1.2126600742
H  4.9661202431 -2.0221800804 0.2249900252
