14

C  0.9370200634 0.0557700060 -0.0092800008
C  2.4260702133 0.0590900034 -0.0024500003
C  3.2155601978 1.1957401037 0.0068600005
S  4.8603606224 0.7417100072 0.0118300002
N  4.5853404999 -0.8875401020 0.0022000002
C  3.2704601288 -1.1123501062 -0.0046500005
C  2.8187901974 -2.5322501659 -0.0142100006
H  0.5352900624 1.0742901564 -0.0030400001
H  0.5521200299 -0.4637800157 0.8740000725
H  0.5604100823 -0.4498300254 -0.9041401148
H  2.9168901443 2.2341501713 0.0108000003
H  1.7274601460 -2.6140801907 -0.0092100007
H  3.1977000237 -3.0591201782 0.8678100705
H  3.1887402534 -3.0437602997 -0.9090300798
