15

C  2.4869902134 -0.5264100432 -1.5203400850
C  2.4632802010 0.0176000018 -0.1012400091
C  3.2245903015 1.3309001923 -0.0232400019
C  2.5397300720 2.5900402069 -0.5676600337
O  2.5183601379 3.1762301922 0.7599400282
C  3.0978202820 2.0823600292 1.3171900511
O  3.3646402359 1.8809200525 2.4789402485
H  1.9546301365 -1.4810800552 -1.5710101128
H  3.5148103237 -0.6886800528 -1.8607101440
H  2.0090801716 0.1687300205 -2.2179501057
H  2.9231803417 -0.7163800597 0.5707800388
H  1.4241501093 0.1465200186 0.2237500250
H  4.2731204033 1.2339501381 -0.3303800225
H  1.5273001194 2.4633502960 -0.9625700712
H  3.1391501427 3.1868302822 -1.2614301443
