19

C  1.4448001385 3.1034402847 0.9664900303
O  2.8247504234 2.7704200745 0.9002800584
C  3.0832202435 1.7946401834 -0.1131600067
C  4.5792403221 1.4786601067 -0.1528300196
C  5.3913202286 2.6392700672 -0.6656900644
C  6.1729302406 2.5936703682 -1.7553300858
C  6.9798407555 3.7520501614 -2.2474002838
H  1.3122500181 3.8690502644 1.7356802225
H  0.8532400727 2.2254002094 1.2411100864
H  1.0998101234 3.5068902969 0.0092600007
H  2.7395102978 2.1672201157 -1.0858401060
H  2.5292901993 0.8802000880 0.1293200105
H  4.7406101227 0.5947700143 -0.7809800506
H  4.9329905510 1.2380400896 0.8560900688
H  5.3218002319 3.5577201843 -0.0840700120
H  6.2470302582 1.6757401228 -2.3330402374
H  6.8608102798 4.6373801231 -1.6153301001
H  6.6730303764 4.0143303871 -3.2639303207
H  8.0404605865 3.4853701591 -2.2649903297
