15

O  0.9233800769 -0.0013700001 0.1651900113
C  2.3586502075 0.0259600021 0.1022800058
C  2.8125901222 1.3014100790 -0.6115800142
N  4.0476703644 1.1032100916 -1.3382601738
C  4.1297402382 -0.0375800021 -2.0769901276
N  3.5787603855 -1.1635100842 -1.8226801157
C  2.8634302616 -1.2785600424 -0.5403800607
H  0.6343500614 0.7519800663 0.7066800594
H  2.7093901634 0.0454200022 1.1410000324
H  2.9438602924 2.1062800884 0.1210600063
H  2.0375602245 1.6474200487 -1.3062901497
H  4.3821601868 1.9379100800 -1.8103301525
H  4.7361903191 0.0849800035 -2.9905302525
H  2.0283000469 -1.9734101295 -0.6849500537
H  3.5490503311 -1.7708600760 0.1621000022
