16

C  0.9818700552 0.0609400049 0.0161300004
C  2.4638102055 -0.0212100018 0.0031600003
C  3.2406401634 -1.1198199987 -0.0125200003
C  4.6872406006 -0.7237100601 -0.0054300004
N  5.3845205307 -1.2017501593 -1.1816099882
C  4.5945100784 0.7713100910 -0.0082000000
C  3.3086202145 1.1526401043 0.0044200006
H  0.5268800259 -0.9353000522 0.0116000008
H  0.6176500320 0.5997100472 -0.8647701144
H  0.6322900653 0.5850800872 0.9116500616
H  2.8855302334 -2.1390302181 -0.0061000008
H  5.1822304726 -1.0766400099 0.9052100182
H  4.8816604614 -0.8739901185 -2.0051100254
H  5.3332304955 -2.2169601917 -1.2048201561
H  5.4480900764 1.4318701029 -0.0110500008
H  2.9463601112 2.1694600582 0.0089000007
