14

C  1.0652101040 0.0635800064 -0.0002800000
C  2.5468802452 -0.0349499993 -0.0528600067
C  3.2903902531 -1.1388200521 -0.0808200017
C  4.7180805206 -0.7527400851 -0.0836900026
C  4.6145005226 0.7475500703 -0.3324700296
O  3.2621302605 1.1585000753 -0.0460100062
H  0.5942000151 -0.9245800972 -0.0271000005
H  0.6922300458 0.6391100287 -0.8534900546
H  0.7496800423 0.5654100180 0.9199500680
H  2.9200301170 -2.1525902748 -0.0658900067
H  5.1768102646 -0.9691600800 0.8863200545
H  5.2958202362 -1.2502501011 -0.8671200275
H  4.8288302422 0.9914000630 -1.3803300858
H  5.3060002327 1.3146800995 0.2992200255
