19

O  0.9931500554 -0.3654500246 -0.2006400228
C  2.3812401295 -0.2180000246 0.0659600049
C  2.7507801056 1.2529100180 -0.0571300052
C  4.2356100082 1.4856801033 0.2127500176
C  4.5975704193 2.9665701389 0.0828500018
C  6.0599207878 3.1949002743 0.3373300135
C  6.5382804871 3.9724202156 1.3166800737
H  0.7847400308 -1.3114000559 -0.1136100069
H  2.9401004314 -0.8238200545 -0.6548800468
H  2.5831902027 -0.5892900229 1.0760700703
H  2.1414501667 1.8396700621 0.6410800219
H  2.4866003990 1.6108900309 -1.0596801043
H  4.8331203461 0.8936500549 -0.4930700362
H  4.4858002663 1.1294800043 1.2207900286
H  3.9869904518 3.5573101044 0.7764101028
H  4.3625302315 3.3185403347 -0.9284901023
H  6.7605004311 2.7006201744 -0.3326900303
H  5.8806204796 4.4934101105 2.0056900978
H  7.6079106331 4.1059303284 1.4476301670
