18

C  1.0405900478 -0.0102500012 -0.0283500012
C  2.5331699848 0.0541700013 0.0124800010
O  3.0871503353 0.0012100000 1.3349500895
C  3.3524603844 -0.6127200723 -1.0583400726
C  3.2719602585 0.8949800730 -0.9989300966
C  4.4573302269 1.7122502327 -0.6061200500
N  5.2429003716 1.9625102282 -1.8078801632
H  0.6574300528 0.0258500017 -1.0530900955
H  0.6109400392 0.8309300542 0.5241800547
H  0.6889100671 -0.9384800792 0.4316200316
H  2.8909602165 -0.8504700661 1.7621901035
H  2.8400902748 -1.1074200869 -1.8751101494
H  4.2823600769 -1.0897901058 -0.7688900232
H  2.6757802963 1.4004700184 -1.7522300482
H  5.0809302330 1.2069100142 0.1388500035
H  4.1236801147 2.6639702320 -0.1806500107
H  5.5889000893 1.0724201202 -2.1611702442
H  6.0666403770 2.5024201870 -1.5509300232
