16

N  3.2926702499 -0.8591600657 -2.4378402233
C  3.4202101231 -0.4646200240 -1.3547002077
C  3.5803601742 0.0344200023 0.0176800024
C  4.3380002975 1.3540000916 0.0302100014
C  3.5920500755 2.6148400307 -0.4889700413
C  4.3052306175 3.4058804512 0.6263400316
C  4.4108505249 2.0773000717 1.4023801088
H  4.1270203590 -0.7071600556 0.6113800406
H  2.5944502354 0.1498400122 0.4825600386
H  5.3371906281 1.2497401237 -0.4197900295
H  2.5024101734 2.5799503326 -0.3724700212
H  3.8307602406 2.9206101894 -1.5109100342
H  5.2745103836 3.8186900616 0.3240000010
H  3.7155802250 4.1915302277 1.1048702002
H  5.3356204033 1.9318901300 1.9667501450
H  3.5571200848 1.8885401487 2.0639700890
