15

C  1.2034301758 -0.2362300158 -0.6345800161
C  2.4746301174 -0.0335800014 -0.2682400048
C  3.1151103973 1.2552400827 -0.1639600098
C  4.4190406799 1.4035401344 0.1459800154
C  4.7923502922 2.8551602364 0.1905800253
C  3.4918901920 3.5178301334 -0.1362700164
C  2.5497300625 2.5848901272 -0.3327900171
H  0.8021700978 -1.2433100939 -0.6874600649
H  0.5333700776 0.5765200257 -0.8918200731
H  3.0866103172 -0.9012800455 -0.0289000012
H  5.1188702583 0.6039900184 0.3392300010
H  5.5565805435 3.0901904106 -0.5557200313
H  5.1448903084 3.1421403885 1.1854799986
H  3.3435001373 4.5848803520 -0.1989100128
H  1.5170000792 2.7785401344 -0.5784800053
