20

N  1.1385701895 2.0031502247 0.3409300447
C  2.5211601257 1.9496301413 -0.1181200072
C  3.3825502396 1.1779700518 0.8796300888
C  4.8223204613 1.1033401489 0.3878700435
C  5.6707706451 2.4030001163 0.4575200379
C  6.8682904243 1.5143301487 0.8472800851
C  5.8442106247 0.4927200377 1.3833801746
H  0.5883800387 2.5642001629 -0.3089900315
H  1.0934400558 2.4813001156 1.2395901680
H  2.9022603035 2.9689500332 -0.2443700135
H  2.5556900501 1.4651401043 -1.1000901461
H  2.9886603355 0.1611000001 1.0005401373
H  3.3394503593 1.6584701538 1.8650500774
H  4.8843102455 0.6203700304 -0.5986700654
H  5.3682103157 3.1017601490 1.2465100288
H  5.7756805420 2.9516804218 -0.4820200503
H  7.4462308884 1.1509000063 -0.0103200004
H  7.5531105995 1.9352501631 1.5874401331
H  6.0958504677 -0.5583400726 1.2202900648
H  5.5947003365 0.6386600733 2.4410901070
