14

C  1.0000001192 0.0000000000 0.0000000000
C  2.4440002441 0.0000000000 0.0000000000
C  3.6341602802 0.0000000000 0.0000000000
C  5.0781602859 0.0000000000 0.0000000000
C  5.6397604942 -0.7398900390 -1.2038099766
O  5.5572504997 1.3414901495 -0.0272000022
H  0.6059800386 1.0208700895 0.0116300005
H  0.6059200764 -0.5205300450 0.8782400489
H  0.6060100794 -0.5003200173 -0.8899500370
H  5.4605302811 -0.4619900584 0.9159500599
H  5.3214406967 -0.2715700269 -2.1436002254
H  5.3191504478 -1.7875401974 -1.2182900906
H  6.7355804443 -0.7104100585 -1.1948800087
H  5.0733904839 1.7974101305 -0.7368300557
