13

C  1.0000001192 0.0000000000 0.0000000000
C  2.4440002441 0.0000000000 0.0000000000
C  3.6341602802 0.0000000000 0.0000000000
C  5.0694208145 -0.0273500029 -0.0075400006
N  5.5904607773 1.1066501141 0.3055200279
N  6.9822502136 1.0302300453 0.2844400108
C  7.5012302399 2.1692302227 0.5988900065
H  0.6059600711 1.0208700895 0.0117400009
H  0.6059200764 -0.5205700397 0.8782300949
H  0.6059100032 -0.5002500415 -0.8899500370
H  5.6126804352 -0.9503200650 -0.2623400092
H  8.5957002640 2.2824800014 0.6301700473
H  6.8976407051 3.0593702793 0.8446300626
