19

C  1.9034701586 -0.9711400867 -0.0797400028
N  3.2554404736 -0.6297800541 0.3539600074
C  3.6838402748 0.4921500385 -0.0967000052
N  4.9242401123 0.9657300711 0.1888000071
C  5.3589501381 2.3283400536 -0.0366000049
C  4.9241800308 3.2114801407 1.1274701357
C  6.8764605522 2.3445403576 -0.1933000088
H  1.8400900364 -2.0525503159 -0.2340900302
H  1.6145001650 -0.4903800488 -1.0212700367
H  1.1816000938 -0.6964500546 0.6948400736
H  3.0899801254 1.1618400812 -0.7452500463
H  5.4246206284 0.4202800095 0.8833000660
H  4.9140505791 2.7101802826 -0.9624100924
H  5.3403706551 2.8562302589 2.0775902271
H  3.8328404427 3.2177302837 1.2279900312
H  5.2536206245 4.2450604439 0.9771000743
H  7.3772206306 1.9829901457 0.7124700546
H  7.2369008064 3.3579902649 -0.3996900320
H  7.1885604858 1.6987401247 -1.0221000910
