14

N  3.0302400589 4.1061501503 -1.7385901213
C  2.5046701431 3.6930301189 -0.6425900459
N  3.0890302658 2.8416001797 0.2424000204
C  4.2894806862 2.0852000713 -0.0910700038
C  5.5355706215 2.9671201706 -0.0639300048
C  6.7342705727 2.1530702114 -0.2853000164
N  7.6768107414 1.4938701391 -0.4439600110
H  2.3776700497 4.7399702072 -2.2141501904
H  1.4982801676 4.0206704140 -0.3274500072
H  2.4700303078 2.3904802799 0.9086900949
H  4.1711702347 1.5993301868 -1.0676500797
H  4.3954906464 1.2776000500 0.6441700459
H  5.6096606255 3.4759302139 0.9044600725
H  5.4806203842 3.7513201237 -0.8267500401
