14

O  0.8990300894 0.0003800000 0.2706500292
S  2.2900102139 0.0504700057 -0.1306600124
O  2.6902999878 0.2206400186 -1.5137201548
C  3.1376502514 1.2598601580 0.8488500714
C  4.4622101784 0.5844100714 1.1911301613
N  4.1810402870 -0.8056200743 1.5932900906
C  3.2102801800 -1.3226001263 0.5949100852
H  2.5428402424 1.4520101547 1.7464301586
H  3.2675101757 2.1779401302 0.2729500234
H  5.1245403290 0.5828900337 0.3164800406
H  4.9752202034 1.1174700260 1.9973400831
H  5.0335602760 -1.3651301861 1.5708801746
H  3.7351803780 -1.8302201033 -0.2199500203
H  2.5048601627 -2.0065300465 1.0720701218
