18

C  1.0267601013 0.0590100028 0.3888700306
C  2.5029201508 0.0229700003 -0.0076500010
C  2.8791303635 -1.3147400618 -0.6730800867
C  2.6841802597 -1.0727300644 -2.1396801472
C  3.7353403568 -0.3702400327 -2.9534301758
C  2.6192402840 0.4138900340 -2.3356602192
N  2.7552301884 1.0742300749 -1.0218800306
H  0.7635700703 1.0290100574 0.8238600492
H  0.8118600249 -0.7117800713 1.1358201504
H  0.3658200204 -0.1156800091 -0.4687500298
H  3.1107702255 0.1957600266 0.8876200914
H  2.2638900280 -2.1468002796 -0.3165300190
H  3.9310202599 -1.5563901663 -0.4772000313
H  1.9345202446 -1.6881802082 -2.6130702496
H  4.7333703041 -0.2710000277 -2.5455100536
H  3.7152202129 -0.5092700124 -4.0291004181
H  1.8470600843 0.8098700643 -2.9870500565
H  3.7146501541 1.4050900936 -0.9131200910
