13

C  0.8354900479 -0.0170600023 -0.2301800251
C  2.2889201641 -0.1272300184 0.1019000039
C  2.6652200222 -0.0582900010 1.5458401442
C  3.2336304188 -0.7717300653 -0.8870500922
O  3.1362500191 0.6543300748 -0.7538501024
H  0.6618700624 -0.0098900013 -1.3116501570
H  0.4152800441 0.9056600928 0.1827500165
H  0.2856400311 -0.8641600609 0.1928900182
H  3.7509102821 -0.0868200064 1.6878200769
H  2.2325000763 -0.9039900899 2.0908801556
H  2.2925903797 0.8674300313 1.9971101284
H  2.8288700581 -1.2174100876 -1.7872002125
H  4.1344804764 -1.2470000982 -0.5198200345
