15

C  0.9005100727 -0.0641000047 -0.0668499991
N  2.3490400314 -0.0827500075 0.1574500203
C  2.9583301544 -1.4127101898 0.0922500119
C  3.0926401615 1.0863201618 0.0414300039
C  4.4222407341 1.2515500784 0.0483600013
C  5.0201606750 2.5338301659 -0.0779400021
N  5.5156502724 3.5768404007 -0.1834000051
H  0.4559900463 0.8730100393 0.2858700454
H  0.4085200131 -0.8777900934 0.4768900275
H  0.6829000711 -0.1737900227 -1.1342600584
H  2.2436001301 -2.1966500282 0.3647500277
H  3.7989003658 -1.4913200140 0.7897400260
H  3.3176703453 -1.6160601377 -0.9219900966
H  2.4560203552 1.9672900438 -0.0581300035
H  5.0926303864 0.4092700481 0.1522700191
