11

O  2.2674601078 -0.7895400524 -0.9850200415
C  2.2877800465 0.0095400009 -0.0585300066
C  1.4074701071 -0.1495600045 1.0757801533
C  0.6757700443 -0.2857300341 2.0190801620
C  3.2469201088 1.1303501129 -0.0235600006
C  3.3011701107 2.1122801304 -1.1664700508
O  2.6664302349 2.4434101582 0.0741100088
H  0.0226300023 -0.4098000228 2.8517701626
H  4.1663403511 0.9423500896 0.5159300566
H  2.6676902771 1.9416102171 -2.0288801193
H  4.2482404709 2.5872101784 -1.3889900446
