18

C  1.0409500599 -0.0572600067 0.1052600071
C  2.5286402702 -0.0371000022 0.0066100000
C  3.2457702160 -0.6464700103 -1.1696900129
O  2.4221401215 -1.1726300716 -2.2189002037
C  3.2106702328 0.8532400727 -1.0051801205
C  4.4382100105 1.6098901033 -0.6225400567
N  5.2148404121 1.8519501686 -1.8289201260
H  0.7046200633 0.6959700584 0.8248300552
H  0.6999700665 -1.0368601084 0.4547000229
H  0.5543299913 0.1535100192 -0.8525100946
H  2.9875202179 -0.1660100073 0.9805100560
H  4.1789002419 -1.1622800827 -0.9662100673
H  2.6841402054 -0.8050100803 -3.0809502602
H  2.5792601109 1.4277900457 -1.6750401258
H  5.0453000069 1.0624401569 0.1065800115
H  4.1528606415 2.5658001900 -0.1720200032
H  5.5568704605 0.9634301066 -2.1914100647
H  6.0435104370 2.3933401108 -1.5866701603
