12

C  1.0000001192 0.0000000000 0.0000000000
C  2.4440002441 0.0000000000 0.0000000000
C  3.6341602802 0.0000000000 0.0000000000
C  5.0021600723 0.0000000000 0.0000000000
C  6.1923203468 0.0000000000 0.0000000000
C  7.6363205910 0.0000000000 0.0000000000
H  0.6060300469 1.0205501318 0.0116800005
H  0.6060400605 -0.5203700066 0.8779600859
H  0.6060300469 -0.5001600385 -0.8896600604
H  8.0302906036 1.0205501318 -0.0116800005
H  8.0302801132 -0.5203700066 -0.8779600859
H  8.0302906036 -0.5001600385 0.8896600604
