14

C  0.9937000871 -0.0650500059 -0.0477600060
C  2.5180802345 -0.0064500007 -0.0262200013
C  3.0872101784 -0.7786800265 -1.1518701315
C  3.5491502285 -1.4138201475 -2.0608701706
C  2.9890203476 1.4459301233 -0.0421200059
N  2.7553901672 2.1573700905 -1.1857601404
O  3.5015501976 1.9945001602 0.9299600720
H  0.5697700381 0.5247200131 0.7724300623
H  0.6405000687 -1.0969001055 0.0580400042
H  0.5834800601 0.3295400143 -0.9846701026
H  2.8731701374 -0.4484100342 0.9132500887
H  3.9635002613 -1.9838701487 -2.8608403206
H  2.5475502014 1.6942101717 -2.0603902340
H  3.1272702217 3.0976002216 -1.2206600904
