14

C  1.0882600546 0.0848700106 0.1575000137
C  2.3477902412 -0.1294300109 -0.2392800301
O  2.7224402428 -1.4073700905 -0.6576700807
C  4.0640006065 -1.2749600410 -1.1890201569
C  4.5480003357 0.1183800101 -0.9304500818
N  3.9485702515 1.2704501152 -1.5983701944
C  3.4190604687 0.8598500490 -0.3035600483
H  0.7575800419 1.0674201250 0.4706300199
H  0.3658700287 -0.7231300473 0.1553600132
H  4.6986107826 -2.0115201473 -0.6860000491
H  4.0387501717 -1.5011200905 -2.2602503300
H  5.5492105484 0.2035300136 -0.5384900570
H  4.5291104317 2.1026401520 -1.4943701029
H  3.6132202148 1.4774401188 0.5632800460
