13

C  0.9834900498 0.0172300003 -0.0079400009
N  2.4285700321 0.0037600002 -0.0005000000
C  3.2373201847 1.1081100702 0.0038600003
C  4.5452003479 0.6735900044 0.0105800014
C  4.5207304955 -0.7416100502 0.0101900008
C  3.1984703541 -1.1295800209 0.0032400002
H  0.6273000240 1.0498100519 0.0023000003
H  0.6305600405 -0.5079900026 0.8824100494
H  0.6404500008 -0.4872400165 -0.9140101075
H  2.8264803886 2.1090400219 0.0018600001
H  5.4216203690 1.3081401587 0.0152200004
H  5.3744502068 -1.4064100981 0.0144800013
H  2.7496201992 -2.1139800549 0.0006900000
