15

N  2.4745302200 -1.3919800520 1.1200100183
C  2.7491302490 -0.6823800802 -0.0083900001
N  2.6128201485 -1.1972401142 -1.1813800335
C  3.2446403503 0.7409700751 0.1137500033
C  4.7680001259 0.7581100464 0.1156300083
C  5.2829003334 2.1303601265 0.2439800054
C  5.7056107521 3.2501902580 0.3409500420
H  2.3151102066 -0.8655900359 1.9726001024
H  1.8611501455 -2.1913902760 1.0223701000
H  2.3044500351 -2.1681301594 -1.1020001173
H  2.8484802246 1.1855100393 1.0345900059
H  2.8521602154 1.3265600204 -0.7265300155
H  5.1518101692 0.3049400449 -0.8062200546
H  5.1474699974 0.1463900208 0.9432300925
H  6.0817103386 4.2442102432 0.4190900326
