13

O  0.9790700674 -0.1501100063 -0.0490100048
C  2.1902601719 -0.0666100010 -0.0052200002
C  3.1797003746 -1.2152100801 0.0537600033
C  4.4773001671 -0.3848700523 -0.0388200022
C  4.3131704330 0.7199600935 -1.1457800865
C  3.2375802994 1.1344301701 -0.0798900053
O  4.3155703545 0.7737400532 0.9232200980
H  3.0614502430 -1.8783800602 -0.8049900532
H  3.1039903164 -1.7450200319 1.0050001144
H  5.4455704689 -0.8793300390 0.0458400026
H  3.9368302822 0.3855500519 -2.1146700382
H  5.1550703049 1.4041100740 -1.2690701485
H  2.9012103081 2.1658401489 -0.0158600006
