12

C  0.9779201150 0.0745700076 -0.1582600176
C  2.4144401550 0.3072900176 0.1452700049
O  3.3068401814 -0.6596201062 -0.4200600386
C  3.3882801533 0.6797800064 -0.9417400360
C  4.6336903572 1.3903800249 -0.6046500802
O  4.6934604645 2.6120703220 -0.6572200060
H  0.4161400497 1.0079500675 -0.0549300052
H  0.5584000349 -0.6554900408 0.5407700539
H  0.8277100325 -0.3026600480 -1.1752500534
H  2.5909700394 0.6432200670 1.1583400965
H  3.0054903030 0.8559400439 -1.9389201403
H  5.4990906715 0.7712800503 -0.3158900142
