17

C  -1.5234800577 0.7779300809 -0.0549600050
C  -1.5263200998 -0.7772501111 0.0799500048
C  -0.1725300103 -1.3865001202 0.5567800403
C  0.8570900559 -0.7315600514 -0.2747099996
O  2.0294902325 -0.0082100006 -0.0143500017
C  0.8645700812 0.7205700278 0.2638700306
C  -0.1740500182 1.3807401657 -0.5520700216
H  -2.3404600620 1.0984801054 -0.7107200623
H  -1.7361801863 1.1941701174 0.9390000701
H  -1.7559201717 -1.1922501326 -0.9104501009
H  -2.3348600864 -1.0936801434 0.7480201125
H  -0.0279600024 -1.2209200859 1.6307801008
H  -0.1768900156 -2.4685802460 0.3887800276
H  0.7041400671 -0.9573100805 -1.3254600763
H  0.7287300229 0.9470800757 1.3169801235
H  -0.1705400050 2.4627902508 -0.3838900030
H  -0.0465300046 1.2144600153 -1.6279100180
