15

O  2.4957602024 -1.3377701044 1.2150300741
C  2.1494400501 -0.1665900052 1.3287501335
C  2.9763600826 1.0035800934 0.8674900532
C  4.3125100136 0.6057400703 0.2556100190
C  5.2975301743 1.7624301910 0.0466200039
O  6.0564103127 1.3688901663 1.2162101269
C  5.3722801208 0.0892399997 1.2402801514
H  1.1798499823 0.0927500054 1.7881301641
H  3.1205000877 1.6594301462 1.7340201139
H  2.3795502186 1.5513801575 0.1314600110
H  4.1947102547 -0.0235900003 -0.6344000697
H  4.8890104294 2.7716901302 0.1466800123
H  5.9093904495 1.7007201910 -0.8587700725
H  6.0170402527 -0.7092500925 0.8597200513
H  5.0247602463 -0.1640300155 2.2449102402
