16

C  1.9409000874 -0.0126500009 0.4826700091
O  3.3523101807 0.1873000115 0.5640500188
C  3.8009603024 1.2543201447 -0.1590500176
O  3.0998601913 1.9741601944 -0.8611000776
C  5.3245806694 1.3870301247 -0.0208600014
C  5.9991507530 0.5060700178 -1.0647300482
N  5.7314605713 2.7965202332 -0.1877600104
H  1.6889301538 -0.8918300271 1.0813601017
H  1.6380300522 -0.2005500048 -0.5520300269
H  1.4085701704 0.8506400585 0.8930700421
H  5.6158604622 1.0745100975 0.9874200225
H  5.7179403305 0.8023900390 -2.0822601318
H  5.7045907974 -0.5421900153 -0.9382600784
H  7.0901603699 0.5594600439 -0.9824300408
H  5.2353701591 3.1807303429 -0.9960300922
H  6.7239503860 2.8494002819 -0.4054700136
