16

C  2.8927302361 -1.1865500212 -0.4621500373
N  2.3477103710 0.0481000021 0.0850200057
C  3.3126201630 1.1382601261 0.0467700027
C  2.8098802567 2.3204002380 0.8328800797
C  2.7266802788 3.4038503170 0.0431400016
C  3.1311702728 3.0463302135 -1.2918301821
C  3.4623403549 1.7470202446 -1.3204801083
H  2.1412401199 -1.9786502123 -0.3837300241
H  3.7803201675 -1.5138801336 0.0892200023
H  3.1458902359 -1.0859200954 -1.5219601393
H  2.0798802376 -0.1144400090 1.0530600548
H  4.2862305641 0.8306900859 0.4476000369
H  2.5647602081 2.2982101440 1.8832200766
H  2.3971703053 4.3881201744 0.3376600444
H  3.1409301758 3.7277503014 -2.1284701824
H  3.7941801548 1.2110100985 -2.1956200600
