20

C  0.8847200274 -0.4126400352 0.0874900073
C  2.3356301785 -0.0296000019 -0.2147000134
C  2.9076900482 -0.9394701123 -1.3266501427
O  4.2436203957 -0.5441899896 -1.6395801306
N  2.5796802044 1.4045101404 -0.5337300897
C  1.8077901602 1.9064401388 -1.6730501652
C  2.3616499901 2.2647502422 0.6336900592
H  0.4809700251 0.1644200087 0.9256900549
H  0.8235900402 -1.4704600573 0.3668000102
H  0.2324700058 -0.2652200162 -0.7786200643
H  2.9337801933 -0.2517500222 0.6798400283
H  2.3118503094 -0.8904600739 -2.2442102432
H  2.9336702824 -1.9834401608 -0.9979301095
H  4.2523403168 0.4245100319 -1.4927501678
H  2.0160300732 1.3334400654 -2.5810101032
H  2.0976102352 2.9394001961 -1.8970302343
H  0.7292700410 1.8939100504 -1.4903200865
H  2.9498002529 1.9185401201 1.4891501665
H  1.3089001179 2.3099701405 0.9304400682
H  2.6963202953 3.2851502895 0.4190700352
