15

C  3.1063501835 -1.2515401840 -0.3258300126
C  2.4091501236 0.0110300006 0.1537500173
C  3.3920004368 1.0877699852 0.4819000363
O  3.8392803669 1.8519201279 -0.6421900392
C  3.0263602734 2.5419902802 0.3218700290
C  3.7476100922 3.5327401161 1.0605201721
C  4.3500499725 4.3650503159 1.6797000170
H  2.3722000122 -2.0313601494 -0.5503500700
H  3.7917702198 -1.6354401112 0.4370000362
H  3.6892201900 -1.0572600365 -1.2322001457
H  1.8219401836 -0.2176700234 1.0501201153
H  1.7035201788 0.3468900323 -0.6153300405
H  4.1166100502 0.8044300675 1.2341101170
H  2.0140602589 2.7904403210 0.0260900017
H  4.8910803795 5.1045403481 2.2243101597
