14

C  0.9022100568 0.0487500019 -0.0031600003
C  2.4154400826 0.0068200007 -0.0052000005
C  3.1319000721 0.9989801049 0.9332400560
N  4.1938405037 0.0152800018 1.3128401041
S  3.2010002136 -1.2966800928 0.9035600424
O  2.4600601196 -1.7120001316 2.0664701462
O  3.9756803513 -2.1700103283 0.0572500043
H  0.4927500188 -0.7904500365 -0.5749500394
H  0.5431800485 0.9749000669 -0.4643300474
H  0.4933800399 -0.0011300000 1.0112700462
H  2.8050401211 0.0433300063 -1.0309901237
H  2.5543801785 1.3141901493 1.8099001646
H  3.5387802124 1.8886501789 0.4442200065
H  5.0346403122 0.0013800000 0.7315800786
