18

C  1.4549101591 3.0126302242 0.2013200223
N  2.8097302914 2.5833601952 0.4351100326
C  3.4271502495 1.6824702024 -0.4074100554
O  2.8898203373 1.2367901802 -1.4164500237
C  4.8338103294 1.2864999771 0.0403100029
C  5.3934206963 0.1683300138 -0.8375700712
C  5.7691602707 2.4940702915 0.0173700005
H  1.2821100950 3.9371101856 0.7574501038
H  0.7748400569 2.2340602875 0.5576100349
H  1.2866700888 3.1829302311 -0.8658400178
H  3.2243204117 2.7703301907 1.3382500410
H  4.7593307495 0.9084700346 1.0676800013
H  5.4894204140 0.4895100296 -1.8806500435
H  4.7356805801 -0.7073000669 -0.8193300962
H  6.3814401627 -0.1458000243 -0.4860500395
H  5.8121504784 2.9408202171 -0.9825000763
H  6.7848606110 2.2071602345 0.3082200289
H  5.4345703125 3.2731201649 0.7101700902
