19

C  3.2340202332 -1.1523301601 -0.0442400016
C  2.4266200066 -0.1260300130 0.7416400909
C  2.9238502979 1.3285900354 0.5856500268
C  1.9554201365 2.2614600658 1.3233101368
N  4.2959899902 1.4575101137 1.0983500481
C  4.8806405067 2.7708401680 0.8544900417
H  2.7434902191 -2.1296000481 0.0052200002
H  4.2416405678 -1.2724601030 0.3636900485
H  3.3152303696 -0.8669000864 -1.0977801085
H  2.4191901684 -0.4129500389 1.8012001514
H  1.3867701292 -0.1833100021 0.3957300484
H  2.9070701599 1.5778901577 -0.4827500284
H  2.0020902157 2.1088502407 2.4074702263
H  0.9220500588 2.0800602436 1.0053200722
H  2.1712200642 3.3141901493 1.1163500547
H  4.8895602226 0.7614900470 0.6494300365
H  4.3892703056 3.5510902405 1.4423700571
H  4.8478302956 3.0381100178 -0.2064000219
H  5.9316701889 2.7583801746 1.1625599861
