17

C  1.0062600374 0.1325500011 0.4717400372
C  2.4197700024 0.1128200069 -0.0908800066
C  3.4018001556 1.0570200682 0.6239200234
C  3.9118001461 -0.1855200231 1.3594701290
N  3.2606701851 -0.9685700536 0.3549800217
C  2.7496802807 -2.1950101852 0.6538100243
N  3.2162702084 -3.0676102638 1.4791101217
H  0.3831100166 -0.6362200379 0.0026400003
H  0.5335300565 1.0991899967 0.2658800185
H  0.9853500724 -0.0217500031 1.5563501120
H  2.4339301586 0.2039500177 -1.1828000546
H  2.9644000530 1.8320701122 1.2596701384
H  4.1419901848 1.5164501667 -0.0411100052
H  4.9958300591 -0.3191600144 1.3735401630
H  3.4933402538 -0.3210600317 2.3623800278
H  1.8519102335 -2.4539902210 0.0675600097
H  4.0735201836 -2.7023003101 1.9006801844
