16

C  1.2856000662 -0.3607900143 0.1563300043
C  2.8002302647 -0.3705500066 0.0302100014
C  3.3731703758 1.0438400507 0.0457400009
C  4.8861503601 1.0595800877 -0.0820400044
C  5.5360403061 2.4186401367 -0.1065500081
O  5.5604805946 0.0335500017 -0.1581500173
H  0.8979700804 -1.3841801882 0.1443700045
H  0.8264100552 0.1860500127 -0.6732500792
H  0.9730300903 0.1099300086 1.0937800407
H  3.0825603008 -0.8779600859 -0.9000900388
H  3.2278103828 -0.9564700723 0.8526700735
H  3.1095404625 1.5440101624 0.9843000770
H  2.9586400986 1.6228201389 -0.7870100737
H  5.1616306305 2.9883301258 -0.9605900645
H  6.6195602417 2.3077702522 -0.2038800120
H  5.3170304298 2.9462103844 0.8250200748
