15

C  1.5249102116 0.3386700153 0.4547900259
C  2.8210000992 0.0102400007 -0.2659600079
N  3.8418602943 0.9749701023 0.0833400041
C  5.1154503822 0.9112600684 -0.3826200366
N  5.7802906036 -0.0738600045 -0.8537200689
C  5.8951601982 2.1199302673 -0.3761600256
C  6.5385208130 3.1346702576 -0.3715100288
H  0.7488100529 -0.3876300454 0.1941900104
H  1.1644700766 1.3362801075 0.1816000193
H  1.6634701490 0.3187700510 1.5409600735
H  2.6524500847 0.0247300025 -1.3480401039
H  3.1410503387 -0.9988800287 0.0152500011
H  3.5006902218 1.9194501638 0.2343600243
H  5.2049803734 -0.9147201180 -0.8212100863
H  7.1220006943 4.0249104500 -0.3748300374
