17

C  1.0181701183 -0.4248200357 0.1117400080
N  2.4233400822 -0.1596300155 -0.2052000165
C  2.9202501774 -1.1163699627 -1.1966100931
N  2.5852601528 1.1570301056 -0.6657800674
C  3.3778002262 2.0833301544 -0.0291600022
C  4.0948705673 1.6389201880 1.2181501389
O  3.4846000671 3.2253000736 -0.4751400352
H  0.6628600955 0.2710500062 0.8802201152
H  0.8988000751 -1.4352101088 0.5179800391
H  0.3712600470 -0.3239600062 -0.7674800754
H  2.8410003185 -2.1408402920 -0.8167900443
H  3.9811203480 -0.9348600507 -1.4029999971
H  2.3709900379 -1.0518200397 -2.1430001259
H  2.1107301712 1.4773900509 -1.5050101280
H  3.3724701405 1.3366400003 1.9815001488
H  4.6856803894 2.4714703560 1.6123000383
H  4.7735800743 0.8125100732 0.9896100760
