15

C  2.3292503357 -0.5363500118 -1.5077401400
N  2.2225000858 0.1563100070 -0.2301500142
C  3.2401204109 1.2264101505 -0.1666800082
C  2.6094202995 2.5654001236 -0.6337500811
N  3.1295602322 3.1700501442 0.6062300205
C  3.3315601349 1.9601200819 1.2041001320
O  3.4525003433 1.6771700382 2.3707602024
H  1.5603600740 -1.3127900362 -1.5669901371
H  3.3051502705 -1.0198600292 -1.6220301390
H  2.1706602573 0.1489300132 -2.3468902111
H  2.3304402828 -0.5215300322 0.5273900628
H  4.2273001671 0.9819601178 -0.5751400590
H  1.5170601606 2.6230201721 -0.6864300370
H  3.0538101196 3.0000803471 -1.5327600241
H  2.6975002289 3.8831803799 1.1785200834
