17

C  1.0102701187 -0.0906300098 -0.0646700040
C  2.5295500755 -0.0060200002 0.0101200007
C  3.0258102417 1.4324501753 0.1987200081
O  2.5062901974 1.9716401100 1.4153000116
C  4.5483803749 1.4896601439 0.2516600192
C  5.0048003197 2.9181003571 0.1334100068
O  5.9203104973 3.2663402557 -0.6076900363
H  0.6985700727 -1.1275300980 -0.2222900093
H  0.6263700724 0.5097400546 -0.8949800730
H  0.5454400778 0.2624900043 0.8604900241
H  2.9553802013 -0.4292800426 -0.9075701237
H  2.8664901257 -0.6308700442 0.8472000957
H  2.6532602310 2.0604503155 -0.6179800630
H  2.5730299950 1.2919901609 2.1093502045
H  4.9932003021 0.9193000793 -0.5711100698
H  4.9271602631 1.1016700268 1.2045301199
H  4.5253901482 3.6417403221 0.8149800897
