15

N  1.1344001293 0.0311300009 0.4922700226
C  2.3198502064 0.0347900018 -0.0177300014
C  3.1229202747 -1.2642000914 -0.1069100052
O  4.1254205704 -1.2605400085 -1.1269800663
C  4.9177002907 -0.0689300075 -1.0615901947
C  4.0539202690 1.1752301455 -1.3015100956
N  2.9025802612 1.2181601524 -0.4125000536
H  0.7727100849 0.9832900763 0.4345800579
H  2.4548101425 -2.1088302135 -0.2805800438
H  3.6192700863 -1.4188801050 0.8635700941
H  5.4237208366 -0.0219200011 -0.0910700038
H  5.6837201118 -0.1368000060 -1.8385200500
H  4.6519203186 2.0857000351 -1.1807401180
H  3.6745800972 1.1590200663 -2.3300502300
H  2.9841401577 1.8872201443 0.3462500274
