13

O  2.0304400921 -0.4464700222 -1.3118401766
C  2.4284300804 -0.0520300046 -0.0055800001
C  2.8905003071 1.3552401066 0.0087800007
C  2.1371102333 2.5070402622 -0.0929100066
N  3.0150101185 3.5483903885 -0.0345400013
N  4.2910203934 3.1625204086 0.1229500100
C  4.2162904739 1.8291801214 0.1291800141
H  1.7435600758 -1.3717401028 -1.2482000589
H  3.2247300148 -0.7249300480 0.3296400309
H  1.5728001595 -0.1748200208 0.6674500704
H  1.0759701729 2.6682901382 -0.2153300196
H  2.8161401749 4.5419101715 -0.0910000056
H  5.1292901039 1.2557601929 0.2252800167
