14

O  1.0001001358 0.0568900034 -0.0021100002
C  2.4094302654 0.0238600019 -0.0190800019
C  2.9929401875 1.1574301720 0.8206200600
C  4.3520903587 0.6269800663 1.2376999855
N  4.1460003853 -0.7861700654 1.3486101627
C  3.0397803783 -1.2052401304 0.6375100613
O  2.6409301758 -2.3545100689 0.5456300378
H  0.7085100412 -0.8420600891 -0.2479400188
H  2.7625403404 0.0774500072 -1.0549200773
H  2.3637900352 1.3395701647 1.7015202045
H  3.0577902794 2.1003901958 0.2693700194
H  5.1127800941 0.8024200797 0.4704800546
H  4.6911602020 1.0332601070 2.1938102245
H  4.7445607185 -1.4453800917 1.8315201998
