16

C  1.4741801023 0.2628300190 -0.2717500031
C  2.8268702030 -0.2026300132 0.1161200032
C  3.0851900578 -1.6329001188 0.4558300376
N  4.2716202736 -1.9737101793 -0.3513300121
C  5.0737404823 -0.7503600717 -0.5242800117
C  4.0635004044 0.3455600142 -0.4870600402
O  3.6302804947 0.7642500401 0.8149500489
H  1.4718601704 1.3230801821 -0.5435200334
H  0.7731500864 0.1254200041 0.5566400290
H  1.1045800447 -0.3051100075 -1.1306000948
H  2.2513701916 -2.2869400978 0.1847300231
H  3.2952902317 -1.7486001253 1.5250500441
H  4.8207006454 -2.6882801056 0.1204700097
H  5.7991304398 -0.6405700445 0.2892000079
H  5.6071805954 -0.7801700830 -1.4785301685
H  4.0348205566 1.0213900805 -1.3240001202
