17

C  0.9762700796 -0.1980200112 -0.2545500100
C  2.4588701725 0.0707000047 0.0098500010
N  3.2902202606 -0.7381700873 -0.8790600300
C  2.8102302551 1.5401500463 -0.1115100086
C  2.6911501884 2.1978900433 -1.4609800577
C  3.2177302837 2.2495703697 0.9565300941
H  0.3461300135 0.4101100266 0.4041200280
H  0.7337700725 -1.2500400543 -0.0653200075
H  0.6937900186 0.0243200008 -1.2896000147
H  2.6718802452 -0.2631600201 1.0335100889
H  2.9977803230 -0.5908700824 -1.8429101706
H  3.1191704273 -1.7236601114 -0.6875400543
H  1.6674201488 2.1243102551 -1.8398801088
H  3.3673601151 1.7313301563 -2.1838402748
H  2.9452803135 3.2628703117 -1.4202301502
H  3.3180301189 1.7940400839 1.9371602535
H  3.4755401611 3.3013701439 0.8779900670
