12

C  1.0247200727 1.1589100361 -0.2876800299
O  -0.1112100035 1.2966700792 0.5600399971
N  -1.2800800800 0.8579600453 -0.0769100040
C  -1.4076501131 -0.4289100468 -0.0840300098
O  -0.5258600116 -1.4101001024 0.2689400017
C  0.8721700907 -1.2905001640 0.2138700187
C  1.5911902189 -0.2050100118 -0.0963400081
H  1.7572602034 1.9041202068 0.0389300026
H  0.7828500867 1.3609200716 -1.3370701075
H  -2.3481702805 -0.8975400329 -0.4107600152
H  1.3112701178 -2.2617101669 0.4051300287
H  2.6708703041 -0.2950600386 -0.1641700119
