16

C  3.5324304104 -1.1696600914 -2.3580403328
C  3.5783901215 -0.6411900520 -1.2926300764
C  3.6341602802 0.0000000000 0.0000000000
C  4.3971705437 1.3204700947 -0.0744200051
C  3.6843502522 2.5208601952 -0.7412400842
C  4.2866902351 3.3391401768 0.4122900367
N  4.3368601799 2.0898001194 1.2043300867
H  3.4885601997 -1.6446901560 -3.3110902309
H  4.1305103302 -0.6663600206 0.7161000371
H  2.6174101830 0.1626100242 0.3786300421
H  5.4304504395 1.1863801479 -0.4266600311
H  2.5886201859 2.4755401611 -0.7278600931
H  4.0226402283 2.7864603996 -1.7453701496
H  5.2740602493 3.7631502151 0.1940600127
H  3.6444504261 4.1206302643 0.8257800341
H  5.1612505913 1.9969701767 1.7972401381
