17

C  0.9940900207 0.0861500055 0.0917000026
C  2.4902901649 0.1144000143 -0.2066500187
C  2.9315903187 -0.5910400748 -1.4668000937
C  2.1584701538 -1.0343201160 -2.4672901630
C  2.9355301857 1.5558700562 -0.3377200365
N  3.8538303375 2.0419301987 0.4377000332
N  4.1252102852 3.3421304226 0.1798300147
H  0.7851200700 0.5904400349 1.0422900915
H  0.6262400150 -0.9426600337 0.1709200144
H  0.4117100239 0.6036200523 -0.6792900562
H  3.0176503658 -0.3442400098 0.6388300657
H  4.0085501671 -0.7476000786 -1.5490001440
H  1.0801100731 -0.9168600440 -2.4720602036
H  2.6030702591 -1.5303601027 -3.3259601593
H  2.4432702065 2.1639802456 -1.1214401722
H  4.9772605896 3.6120402813 0.6789900661
H  3.3970801830 3.9479303360 0.5680600405
