14

O  1.2843500376 -0.0042700004 0.8362900615
C  2.0672101974 0.1450000107 -0.2724800408
O  1.8922201395 -0.5467100739 -1.2689000368
C  3.1573002338 1.2607101202 -0.0763200074
C  2.8031501770 2.6905500889 -0.5334100723
C  3.4637603760 3.1390202045 0.7775600553
N  3.1705701351 1.7978701591 1.3381301165
H  1.5960000753 0.6628200412 1.4928601980
H  4.1512804031 0.9326500893 -0.4076000154
H  1.7281900644 2.9000401497 -0.5879899859
H  3.2840802670 3.0356202126 -1.4520500898
H  4.5351505280 3.3535101414 0.6885700822
H  2.9750502110 3.9688503742 1.2945801020
H  3.9338102341 1.4267901182 1.9096801281
