16

C  1.0000001192 0.0000000000 0.0000000000
C  2.4440002441 0.0000000000 0.0000000000
C  3.6341602802 0.0000000000 0.0000000000
C  5.0781602859 0.0000000000 0.0000000000
N  5.5962204933 1.3732800484 -0.0439600050
C  5.9065008163 1.9320501089 1.2694501877
C  7.0011105537 1.4748901129 0.3388800323
H  0.6060300469 1.0208901167 0.0119000012
H  0.6059499979 -0.5206800699 0.8781600595
H  0.6059200764 -0.5001000166 -0.8900300264
H  5.4400706291 -0.5289500356 -0.8900001049
H  5.4485702515 -0.5679000020 0.8639701009
H  5.6896905899 1.3427901268 2.1515302658
H  5.7388205528 2.9967603683 1.3751300573
H  7.5751805305 2.2324001789 -0.1811900139
H  7.5433802605 0.5685700178 0.5791600347
