20

C  0.9969900846 0.0114100007 -0.0257100016
C  2.5167200565 0.0181600004 0.0328800008
C  3.0725502968 1.1273500919 0.9112901092
C  4.4766702652 0.6311000586 1.1883600950
N  4.3300204277 -0.8137300611 1.3718001842
C  3.1136600971 -1.2467501163 0.6634500027
C  3.4108402729 -2.3315401077 -0.3656400144
H  0.6358300447 -0.8103400469 -0.6519700289
H  0.6241199970 0.9495700598 -0.4488700330
H  0.5580300093 -0.1054600030 0.9708900452
H  2.9075503349 0.1514500231 -0.9855400324
H  2.5045001507 1.2191400528 1.8448101282
H  3.0681502819 2.0979402065 0.4062200189
H  5.1270704269 0.8303800225 0.3282600343
H  4.9160704613 1.1042001247 2.0708901882
H  5.1588902473 -1.3011701107 1.0368700027
H  2.4273302555 -1.6573700905 1.4141900539
H  4.1264705658 -1.9847700596 -1.1195100546
H  2.4959700108 -2.6353602409 -0.8842500448
H  3.8343703747 -3.2192401886 0.1159200072
