15

C  0.9784300327 -0.0102400007 0.3720900118
C  2.4253501892 -0.0447900034 -0.0957600102
C  2.8140301704 1.2325401306 -0.8334800601
O  4.1350903511 1.1295100451 -1.3969101906
C  4.5065007210 -0.1127500087 -1.8019701242
N  3.8484902382 -1.2188301086 -1.6510001421
N  2.6383302212 -1.1374701262 -1.0429501534
H  0.8154100180 0.8263800740 1.0608301163
H  0.7143700719 -0.9339500666 0.8993000388
H  0.2845900059 0.1077900082 -0.4682700336
H  3.0873403549 -0.1916300207 0.7663700581
H  2.8210301399 2.0811102390 -0.1414300203
H  2.1194901466 1.4730700254 -1.6475402117
H  5.4964103699 -0.0814200118 -2.2804102898
H  2.3710801601 -2.0402801037 -0.6462000012
