14

C  0.9016800523 0.0509100035 -0.2052500099
C  2.3835101128 -0.0063900002 0.0633500069
N  2.7563703060 -0.0398000032 1.4838401079
C  3.2503402233 -0.7628000975 -0.9125300646
C  3.2942700386 0.7386600375 -0.8804600835
H  0.6797900796 0.0835400000 -1.2775400877
H  0.4648000300 0.9436400533 0.2548300326
H  0.4043700099 -0.8309800625 0.2126000226
H  3.7670900822 -0.0859200060 1.6023101807
H  2.3838603497 -0.8777800202 1.9300501347
H  2.7791502476 -1.2359700203 -1.7669202089
H  4.1142702103 -1.3015301228 -0.5414400697
H  4.1800003052 1.2170001268 -0.4786100388
H  2.8507301807 1.2787001133 -1.7095801830
