21

C  0.9815800786 2.8231003284 -0.5794300437
C  2.4612402916 2.8895401955 -0.2338900268
C  3.1074702740 1.5036200285 -0.2680900097
C  4.5884604454 1.5472301245 0.0628900006
C  4.9136505127 1.7456201315 1.5227000713
C  5.5099902153 0.6411500573 -0.7284200788
C  5.5383405685 2.1231803894 -0.9664500356
H  0.5426600575 3.8253703117 -0.5602100492
H  0.4398900568 2.2009401321 0.1396600008
H  0.8304900527 2.4052603245 -1.5794501305
H  2.5750002861 3.3405802250 0.7587100267
H  2.9658401012 3.5567903519 -0.9433900714
H  2.9567201138 1.0663399696 -1.2629500628
H  2.6011202335 0.8382300735 0.4415200353
H  5.9944705963 1.7522001266 1.7016600370
H  4.4815802574 0.9370400906 2.1206500530
H  4.5140604973 2.6965203285 1.8861901760
H  5.0879106522 0.0117000006 -1.5050901175
H  6.3601007462 0.1926900148 -0.2260100096
H  6.4045505524 2.6769201756 -0.6215000749
H  5.1338400841 2.4909801483 -1.9031001329
