19

O  2.3222501278 -0.1210200116 -1.1871501207
C  1.9759701490 0.5422100425 0.0208500009
C  2.6112701893 1.9269500971 0.0518500060
C  4.1412601471 1.8617300987 0.0473200008
C  4.7555203438 3.2595403194 0.0998800024
C  6.2774705887 3.2050602436 0.0768700093
O  6.8056702614 4.5233001709 0.1437500119
H  1.8873801231 -0.9906300902 -1.1695901155
H  2.3155801296 -0.0646900088 0.8664800525
H  0.8857100606 0.6290400624 0.0655700043
H  2.2665302753 2.4595201015 0.9448900819
H  2.2791402340 2.4955501556 -0.8247000575
H  4.4910802841 1.3457100391 -0.8548100591
H  4.4862504005 1.2768901587 0.9086800218
H  4.4245700836 3.7864902020 1.0037400723
H  4.3995203972 3.8615903854 -0.7456200123
H  6.6458706856 2.7296602726 -0.8377000690
H  6.6603307724 2.6442801952 0.9340300560
H  6.4856505394 5.0049505234 -0.6375401020
