14

C  1.8652201891 -0.6161900759 -1.1492199898
C  2.0551900864 0.3270700276 -0.2178300172
C  3.2225103378 1.2092201710 -0.1193500087
C  3.4937801361 2.1920499802 -1.2274100780
C  2.9983701706 2.6894102097 0.1064500064
C  3.8986003399 3.4022600651 0.9671100974
N  4.6270904541 3.9784302711 1.6624001265
H  0.9745700955 -1.2366100550 -1.1414101124
H  2.5940701962 -0.7903200388 -1.9346702099
H  1.2921200991 0.4407000244 0.5515600443
H  4.0861005783 0.7494100332 0.3548000157
H  2.8099000454 2.2410101891 -2.0678300858
H  4.5291604996 2.3671102524 -1.5010600090
H  1.9728602171 3.0454702377 0.1355200112
