20

C  2.5298700333 -0.8732300401 1.2901800871
C  2.4768302441 -0.0578900054 0.0166500006
C  1.8148401976 -0.5732800364 -1.0390000343
C  3.1813802719 1.3064600229 0.0170100015
C  3.1190602779 2.0459802151 -1.3369001150
C  2.5717401505 2.2344901562 1.0850800276
N  4.6071701050 1.1099600792 0.3161900043
H  3.5628204346 -1.0920801163 1.5757700205
H  2.0190200806 -1.8369201422 1.1840200424
H  2.0404002666 -0.3433000147 2.1123402119
H  1.3362801075 -1.5471101999 -0.9875400662
H  1.7336502075 -0.0610800013 -1.9910302162
H  3.5799303055 1.4618101120 -2.1429803371
H  3.6472103596 3.0071001053 -1.2938400507
H  2.0839202404 2.2664101124 -1.6243600845
H  2.7060301304 1.8447901011 2.1006202698
H  1.4960101843 2.3693304062 0.9209000468
H  3.0358002186 3.2282102108 1.0628200769
H  4.7161803246 0.8270200491 1.2876100540
H  5.0988903046 1.9979401827 0.2328000069
