13

C  1.7001700401 -0.6195800900 1.0462400913
C  2.4481000900 -0.0968100056 0.0649500042
C  3.1522603035 1.2256101370 0.1454200000
C  4.6027903557 1.0204701424 0.0460500047
C  5.7911705971 0.8646600842 -0.0327000022
C  7.2173304558 0.6736400723 -0.1246700063
O  7.9688806534 1.6218301058 -0.2988200188
H  1.2105001211 -1.5804800987 0.9191000462
H  1.5607601404 -0.1086000130 1.9940901995
H  2.5495603085 -0.6486100554 -0.8677800894
H  2.9126203060 1.7442800999 1.0805900097
H  2.8050401211 1.8640202284 -0.6743800640
H  7.5666804314 -0.3661200106 -0.0286800023
