13

C  2.0436100960 -0.1290800124 -0.1169900149
C  0.7869600654 -0.8659100533 0.1090500131
N  -0.4321400225 -1.2842301130 -0.5697100759
C  -1.4759202003 -0.4385200441 -0.2038400173
N  -1.4281101227 0.7301800847 0.3769500256
O  -0.0999900028 1.2109700441 0.6997600794
C  0.8164600730 0.6614300609 -0.2611700296
H  2.6082003117 -0.3631700277 -1.0124200583
H  2.6762402058 0.0843600109 0.7372700572
H  0.7088600397 -1.1576601267 1.1593000889
H  -0.6637100577 -2.2709500790 -0.6299800277
H  -2.4588000774 -0.8617500663 -0.4693800509
H  0.6459000707 0.9806300402 -1.2888401747
