16

C  0.9934300780 0.0347300023 0.0504200049
C  2.5088002682 -0.0284500010 0.0143700009
N  3.1468002796 0.9986400604 0.8878901005
C  4.1925201416 -0.0012400001 1.2246800661
C  3.1889803410 -1.1239500046 0.8793900609
C  3.7193002701 -2.2696001530 0.1693800092
C  4.1549801826 -3.2226603031 -0.4152000248
H  0.5647500157 -0.8107100725 -0.4977200329
H  0.6309100389 0.9544100761 -0.4208600223
H  0.6041400433 0.0006700000 1.0738301277
H  2.8802802563 0.0225300025 -1.0192600489
H  2.5771801472 1.2677401304 1.6911600828
H  5.0730805397 0.0639700070 0.5734000206
H  4.5292205811 0.0275400020 2.2655003071
H  2.5872802734 -1.4175200462 1.7516602278
H  4.5421504974 -4.0693402290 -0.9349200726
