15

C  1.0296101570 -0.1217700094 0.1601500064
N  2.4812903404 0.1152000055 0.2287000269
C  3.3320403099 -0.9921900630 0.1714800149
C  2.9649903774 -2.2796201706 0.1650900096
C  2.9789004326 1.4272501469 0.2173200250
N  4.2853703499 1.5734701157 0.5904000401
S  2.1676001549 2.8258602619 -0.2100300193
H  0.4479000270 0.7776600718 0.3723800182
H  0.7403800488 -0.8615200520 0.9130700231
H  0.7746500969 -0.4797100425 -0.8422200680
H  4.3948302269 -0.7790600657 0.0880600065
H  1.9372402430 -2.6142401695 0.2182000279
H  3.7222101688 -3.0556201935 0.0962500051
H  4.6474900246 0.9466400743 1.2961801291
H  4.6098904610 2.5308201313 0.6644600630
