10

C  1.0039501190 0.0053600003 0.0050800005
C  2.5225303173 0.0187200010 0.0122200008
N  3.0190100670 1.3882801533 0.0227400009
H  0.6358100176 -1.0255900621 0.0015100001
H  0.6062300205 0.5081100464 -0.8830900192
H  0.5993200541 0.5048400164 0.8917400837
H  2.9032702446 -0.5043300390 -0.8713000417
H  2.8920500278 -0.5074000359 0.8982100487
H  2.7025802135 1.8751401901 -0.8149700165
H  4.0371904373 1.3792501688 -0.0196100026
