17

C  0.8998400569 -0.0490400046 0.0980700105
C  2.4298603535 0.0018900002 0.0859500021
C  2.9231002331 1.3297400475 -0.5493100286
C  3.9124202728 1.1915000677 -1.6728601456
C  4.3245506287 0.0055900007 -2.1390302181
C  3.8458602428 -1.2299900055 -1.5786201954
C  2.9793503284 -1.2502300739 -0.5574300289
H  0.4871600270 0.8189300895 0.6241700649
H  0.5382300019 -0.9482400417 0.6099500060
H  0.4922900200 -0.0547800064 -0.9194100499
H  2.7624001503 -0.0073800008 1.1327401400
H  3.3893401623 1.9373401403 0.2374500185
H  2.0743901730 1.9189801216 -0.9196200371
H  4.2943701744 2.1057202816 -2.1180601120
H  5.0380907059 -0.0520600043 -2.9557404518
H  4.2202501297 -2.1567201614 -2.0060601234
H  2.6590902805 -2.2072203159 -0.1521500200
