19

C  2.9142701626 -0.8954100609 -1.0204100609
C  2.4585101604 -0.0155800013 0.1351400167
C  3.0634603500 1.3996301889 0.0958300084
C  2.4330203533 2.2603001595 1.1954700947
C  4.5593605042 1.3609300852 0.2710300088
C  5.4907002449 1.5265700817 -0.9045300484
O  5.2182703018 2.6066701412 -0.0030700003
H  2.3974101543 -1.8601300716 -0.9834500551
H  3.9894804955 -1.0936200619 -0.9736300707
H  2.6891901493 -0.4272300303 -1.9841800928
H  2.7134900093 -0.5107400417 1.0801301003
H  1.3648201227 0.0575000048 0.0990800038
H  2.8156802654 1.8584001064 -0.8702800870
H  2.6527502537 1.8572801352 2.1898601055
H  1.3458501101 2.3103702068 1.0777100325
H  2.8212802410 3.2835001945 1.1600201130
H  4.8920001984 0.8018000126 1.1352200508
H  5.0753502846 1.5956001282 -1.9024801254
H  6.4693503380 1.0690900087 -0.8530300856
