15

N  1.1999400854 0.0459500030 0.4904700220
N  2.2580301762 0.1422900110 -0.3508400321
C  2.8967602253 1.2682300806 -0.3224500418
C  2.6432802677 2.4717199802 0.5327800512
C  3.3913602829 3.5379502773 -0.2278000116
C  4.5197005272 2.7594003677 -0.8556400537
O  3.9761404991 1.4685301781 -1.1305400133
H  0.9125201106 -0.9356800914 0.5412100554
H  0.3873800337 0.5220700502 0.0895400122
H  3.0735702515 2.3013603687 1.5245101452
H  1.5809000731 2.7094702721 0.6189700365
H  2.7438101768 3.9483103752 -1.0127500296
H  3.7331502438 4.3665599823 0.3978000283
H  4.8650102615 3.2197802067 -1.7857102156
H  5.3720903397 2.6442501545 -0.1776900142
