14

C  0.9524300694 -0.0692100003 -0.1260300130
N  2.3837001324 0.0303100012 0.1064900085
C  3.1403503418 -1.2064201832 0.0406700037
C  3.0773701668 1.2354201078 0.1393800080
O  4.2981805801 1.3191900253 0.2209700197
C  2.3264200687 2.4729802608 0.0643500015
C  1.7221300602 3.5108501911 0.0014800002
H  0.4242200553 0.8451100588 0.1503899992
H  0.5484500527 -0.8934200406 0.4694000483
H  0.7865700722 -0.2706900239 -1.1884500980
H  2.6954801083 -1.9345000982 0.7252800465
H  4.1880602837 -1.0609900951 0.3165400326
H  3.0938000679 -1.5904901028 -0.9827200770
H  1.1988301277 4.4364299774 -0.0527400039
