17

N  0.9233200550 -0.0123700006 -0.3345600069
C  2.3609402180 -0.0790600106 -0.0162200015
C  3.2734503746 -0.8950900435 -0.9008700848
N  2.6920301914 -1.6114401817 -2.0509002209
C  3.3472301960 0.6132600307 -0.9268000722
C  4.5019302368 1.2905001640 -0.3249700367
C  5.7636899948 1.2262401581 -0.7711001039
H  0.5300100446 0.8644400239 0.0072200005
H  0.4223200083 -0.7548200488 0.1526000202
H  2.5863103867 -0.0947400033 1.0482000113
H  4.0896401405 -1.4234501123 -0.4138300121
H  1.8370600939 -1.1138000488 -2.3187100887
H  2.3621501923 -2.5268700123 -1.7489601374
H  2.9516601562 1.1162400246 -1.8041201830
H  4.2993001938 1.9131301641 0.5444100499
H  6.0189008713 0.6306700110 -1.6426801682
H  6.5615005493 1.7687001228 -0.2755400240
