16

C  1.1666800976 -0.0244400017 -0.0322000012
N  2.6215701103 -0.1424200088 -0.0638200045
C  3.1289403439 -0.7514200807 -1.2813301086
C  3.2530400753 0.7432000637 -1.0512901545
C  4.5504102707 1.4312400818 -0.6662800312
C  5.9187002182 1.0108700991 -1.1426801682
O  5.2165203094 2.0933601856 -1.7583600283
H  0.8800200820 0.8060700297 0.6211701035
H  0.7349500656 -0.9396200776 0.3860700428
H  0.7042800784 0.1447499990 -1.0124200583
H  2.4255101681 -1.0995501280 -2.0277800560
H  4.0090603828 -1.3707500696 -1.1632201672
H  2.5827701092 1.3704000711 -1.6373101473
H  4.5155701637 1.9812601805 0.2707400322
H  6.0179805756 0.0928900093 -1.7060601711
H  6.7704606056 1.2533501387 -0.5206800699
