15

C  1.0088200569 -0.0395800024 0.0721400008
C  2.5281500816 -0.0076400009 0.0313100033
C  3.1193304062 1.1729100943 0.8013100624
C  4.3954000473 0.5961300135 1.3317300081
O  5.3324203491 1.2160201073 1.8043501377
N  4.2912707329 -0.7752000690 1.2379300594
N  3.0996201038 -1.2112801075 0.6580900550
H  0.6212500930 -0.8974400759 -0.4881900251
H  0.5935100317 0.8697400689 -0.3756800294
H  0.6329900622 -0.1102300063 1.0990201235
H  2.8644802570 0.0422200039 -1.0123701096
H  2.4986603260 1.4846900702 1.6478501558
H  3.3264200687 2.0210502148 0.1434200108
H  5.0091400146 -1.3885700703 1.6117901802
H  3.2983403206 -1.9086002111 -0.0636000037
