16

C  0.9927800894 -0.0110200010 -0.0354900025
C  2.5235099792 -0.0238800030 0.0239800029
C  2.9926202297 -0.7278500199 1.3009700775
C  3.0921802521 -0.7368100882 -1.2068400383
C  3.0064001083 1.4212701321 -0.0055900007
O  3.6755602360 1.9512600899 0.8752300739
H  0.6326600313 0.4914500415 -0.9409000278
H  0.5691700578 0.5255200267 0.8215400577
H  0.5862500668 -1.0284200907 -0.0317200013
H  2.6100902557 -0.2238200158 2.1959199905
H  4.0862703323 -0.7332000136 1.3726100922
H  2.6495501995 -1.7679001093 1.3294001818
H  2.7718403339 -0.2484200150 -2.1345403194
H  2.7654602528 -1.7817100286 -1.2472300529
H  4.1882405281 -0.7253400087 -1.1978501081
H  2.7120602131 2.0006301403 -0.8994000554
