15

C  0.9858900905 0.0166000016 -0.0698200017
C  2.5041501522 -0.0095500005 0.0531800054
N  2.9362702370 -1.2570601702 0.7227400541
C  3.4166102409 -0.8768500686 2.0663001537
C  3.5333802700 0.6021300554 2.0424201488
C  3.0173802376 1.0912200212 0.9142200351
H  0.6302100420 -0.8201301098 -0.6821400523
H  0.6502700448 0.9453300834 -0.5457300544
H  0.4935900271 -0.0514000021 0.9082000256
H  2.9563701153 0.0475700051 -0.9428400993
H  3.7383902073 -1.6161102057 0.2067800164
H  4.3811702728 -1.3499101400 2.2751603127
H  2.6965301037 -1.1951200962 2.8258602619
H  3.9522104263 1.1888900995 2.8467302322
H  2.9590404034 2.1398301125 0.6581200361
