17

C  1.8507001400 -0.6650200486 0.3578500152
N  3.2339003086 -0.2207300067 0.2439900190
C  3.3052301407 1.2139000893 -0.0430900007
C  4.7621703148 1.6531401873 -0.1437700093
C  4.8188405037 3.1347401142 -0.3812000453
N  5.2787203789 3.6113603115 -1.4915601015
O  5.2145504951 5.0086803436 -1.4423401356
H  1.8301001787 -1.7379001379 0.5726400614
H  1.2968600988 -0.4964200258 -0.5711200237
H  1.3380300999 -0.1549200118 1.1794800758
H  3.6905202866 -0.7406400442 -0.5065400600
H  2.8069300652 1.7799701691 0.7538300753
H  2.7855403423 1.4430301189 -0.9822900891
H  5.2756204605 1.1289800406 -0.9569800496
H  5.2932701111 1.4467802048 0.7920900583
H  4.4466204643 3.7904603481 0.4265500307
H  5.6116704941 5.2660002708 -2.2964899540
