19

C  1.9624401331 0.3046800196 0.9120200872
O  3.3639502525 0.5336100459 0.9584000707
C  3.8178002834 1.2430001497 -0.1925000101
C  5.3126707077 1.4369200468 -0.0798300058
C  6.1028103828 0.1557999998 -0.0552900024
C  5.8424301147 2.6762902737 -0.0249900017
C  7.2813606262 3.0677702427 0.0908000097
H  1.6722701788 -0.2363400161 1.8161300421
H  1.7027502060 -0.3048800230 0.0414900035
H  1.4191601276 1.2539100647 0.8836300969
H  3.2924101353 2.2031700611 -0.2553700209
H  3.5894901752 0.6682500839 -1.0982600451
H  5.8568401337 -0.4528800249 -0.9323800802
H  5.8642501831 -0.4227300286 0.8428200483
H  7.1834001541 0.3081600368 -0.0677000061
H  5.1631507874 3.5282502174 -0.0513800010
H  7.9673209190 2.2222602367 0.1540900171
H  7.4229006767 3.6777503490 0.9885600805
H  7.5684704781 3.6700401306 -0.7767900825
