15

C  1.0000001192 0.0000000000 0.0000000000
C  2.1901600361 0.0000000000 0.0000000000
C  3.6341602802 0.0000000000 0.0000000000
C  4.2223105431 -1.2611401081 0.6498400569
C  4.5382199287 -0.8885800838 2.1009502411
C  4.6544008255 0.5981299877 2.0412700176
C  4.1544103622 1.0823600292 0.8980000615
H  -0.0655300021 0.0028500003 0.0037400003
H  4.0265302658 0.1165700033 -1.0157201290
H  5.1594405174 -1.5268200636 0.1409900188
H  3.5670201778 -2.1377103329 0.5893100500
H  5.4675803185 -1.3580901623 2.4353301525
H  3.7281203270 -1.1791801453 2.7778701782
H  5.0546302795 1.2020800114 2.8445203304
H  4.1050601006 2.1334302425 0.6479400396
