19

C  0.7158700228 -0.5924600363 -0.0627500042
C  2.1018400192 -0.0306200031 -0.0813300088
C  2.4674999714 1.2671802044 -0.1226400137
C  1.5026401281 2.4245302677 -0.0971600041
C  3.9351203442 1.6535202265 -0.1431200057
C  4.3195300102 2.3614802361 -1.4124101400
C  4.8241505623 3.6019601822 -1.4597201347
H  0.6546900272 -1.4335401058 -0.7612800598
H  -0.0489900038 0.1275000125 -0.3615600169
H  0.4774600267 -0.9650300741 0.9380100965
H  2.8833303452 -0.7900300622 -0.0687400028
H  0.4814600348 2.1276800632 0.1513800174
H  1.4792400599 2.9253301620 -1.0703101158
H  1.8085800409 3.1541004181 0.6603200436
H  4.5726804733 0.7653300762 -0.0498400033
H  4.1510500908 2.2740302086 0.7357600331
H  4.1775703430 1.8119001389 -2.3400900364
H  4.9860301018 4.1865105629 -0.5600500703
H  5.0846705437 4.0593705177 -2.4094803333
