16

N  1.0780900717 0.1433200091 0.1830200106
C  2.4977002144 -0.0732700080 -0.0879700035
C  2.8310203552 -1.4897500277 -0.6094900370
O  3.0760402679 -1.3943501711 -2.0266301632
C  3.3577301502 -0.0140400007 -2.3451700211
C  2.1956601143 0.9126001000 -2.5075602531
C  2.9333002567 0.8377900720 -1.1895099878
H  0.9382001162 1.0978201628 0.5079000592
H  0.7710300684 -0.4728300571 0.9323400855
H  3.0592303276 0.1179200113 0.8332300782
H  2.0342900753 -2.2164702415 -0.4233300388
H  3.7494201660 -1.8608101606 -0.1406900138
H  4.2814502716 0.2200800180 -2.8588402271
H  2.3349103928 1.7989001274 -3.1146202087
H  1.2047901154 0.4795900285 -2.5786201954
H  3.5679302216 1.6544802189 -0.8806800842
