15

C  1.0354700089 -0.1865300089 -0.3602300286
C  2.5193402767 -0.3135300279 -0.1363500059
O  3.0851101875 -1.4018701315 -0.2385200113
C  3.2608802319 0.9692800641 0.1807800084
C  4.7205305099 0.7605500221 0.4264000356
C  5.7538104057 1.0632300377 -0.6268000603
O  5.4845905304 1.9748501778 0.4491500258
H  0.5853100419 0.3865500391 0.4557700455
H  0.5780500770 -1.1798201799 -0.3772600293
H  0.8515900970 0.3126500249 -1.3150401115
H  2.8113601208 1.4025801420 1.0813500881
H  3.1013202667 1.6646300554 -0.6517900229
H  4.9371700287 0.0143200010 1.1803201437
H  5.4297804832 1.3493701220 -1.6186401844
H  6.6882209778 0.5168200731 -0.5969500542
