17

N  0.9836100936 0.0513400026 -0.0082900003
C  2.4424903393 0.0157000013 0.0351800025
C  3.0458002090 -1.0692201853 0.9448300600
N  3.8968703747 -0.2560800314 1.8624502420
C  4.5043902397 0.8019400835 0.9409500957
C  3.0269303322 1.2233901024 0.7424400449
C  2.9530401230 0.8872800469 2.2535300255
H  0.6311500072 -0.8205900788 -0.4017300308
H  0.6783300638 0.7934700847 -0.6369300485
H  2.8334603310 -0.0696300045 -0.9857800603
H  3.6498200893 -1.7838401794 0.3751300275
H  2.2926402092 -1.6301001310 1.5102301836
H  5.0410203934 0.4156600237 0.0668000057
H  5.1554002762 1.5270000696 1.4469101429
H  2.8123402596 2.2345800400 0.4008000195
H  3.3909802437 1.6245801449 2.9390001297
H  1.9814502001 0.5821700692 2.6576399803
