18

C  1.1974301338 0.3127300143 0.3947900236
C  2.4141101837 0.1303500086 -0.4987300336
C  3.6614902020 -0.2483500093 0.2864600122
O  3.6268801689 -0.3851700425 1.5093501806
N  4.8312406540 -0.4365200400 -0.4473000467
C  4.9862303734 -0.0767500028 -1.8486001492
C  6.0612301826 -0.6900500655 0.2856500447
H  0.3222400248 0.5821599960 -0.2045000196
H  1.3653900623 1.1061000824 1.1306401491
H  0.9678500295 -0.6086200476 0.9401800632
H  2.6016600132 1.0687900782 -1.0312300920
H  2.2025699615 -0.6619400978 -1.2247300148
H  4.0395002365 -0.0974400043 -2.3898403645
H  5.6694107056 -0.7840800881 -2.3278000355
H  5.4056305885 0.9320000410 -1.9029600620
H  5.8647208214 -1.1471700668 1.2590100765
H  6.5782203674 0.2618900239 0.4376400411
H  6.6966304779 -1.3657300472 -0.2939500213
