14

C  0.9719200730 -0.0051200003 -0.0647000074
C  2.4670102596 -0.0350900032 -0.0722700059
C  3.1771900654 -1.1740400791 -0.1056600064
C  3.1923701763 1.2721701860 0.0001000000
N  2.7179601192 2.3253099918 0.7161900401
N  4.2961201668 1.4955801964 -0.6437200308
H  0.5989100337 0.6529099941 -0.8564100266
H  0.5962000489 0.3573600352 0.8973900676
H  0.5441899896 -0.9989400506 -0.2347900271
H  2.6863000393 -2.1417200565 -0.1424600184
H  4.2620902061 -1.1813300848 -0.0609400049
H  1.7165501118 2.4258401394 0.7995600104
H  3.1977601051 3.1844604015 0.4689900279
H  4.5647106171 0.6698001027 -1.1857202053
