17

C  0.9654200673 0.0504700057 -0.0955800116
N  2.4342901707 0.0474100001 -0.1410400122
C  3.1192703247 -1.1689900160 -0.1742300242
C  2.6561503410 -2.4188601971 -0.2901300192
C  3.1029801369 1.2673699856 0.0127400011
C  2.4503002167 2.3966503143 0.7871700525
N  4.2672500610 1.5320601463 -0.4927800298
H  0.5518400073 1.0190600157 -0.3964000344
H  0.6159200668 -0.1809500158 0.9161500335
H  0.5424600244 -0.6808201075 -0.7926500440
H  4.1940703392 -1.0470900536 -0.0506900027
H  1.6038801670 -2.6509802341 -0.3941500187
H  3.3459503651 -3.2575204372 -0.2785900235
H  1.8428500891 2.0024201870 1.6065900326
H  1.8205301762 2.9824101925 0.1111000031
H  3.2157301903 3.0542201996 1.2103600502
H  4.5778102875 0.7301500440 -1.0453001261
