14

C  1.6775101423 -0.7109800577 -1.5995701551
N  2.9813501835 -0.2035800219 -1.2253701687
C  3.1766800880 0.9470300674 -0.4994700253
C  4.3386101723 1.5828200579 -0.3094200194
C  4.3703403473 2.8126003742 0.5048800111
O  5.6317405701 3.1796102524 0.8110400438
O  3.3881201744 3.4359102249 0.8670100570
H  1.7803001404 -1.7109901905 -2.0312900543
H  1.2108100653 -0.0590100028 -2.3442101479
H  1.0206100941 -0.7833100557 -0.7268100381
H  3.7490303516 -0.4864800274 -1.8290702105
H  2.2609200478 1.3310301304 -0.0457500033
H  5.2538104057 1.2100501060 -0.7445500493
H  6.3255505562 2.5629003048 0.5171900392
