9

N  0.8410500884 0.2658000290 0.0053300005
C  2.0001702309 0.1845200211 0.0017600001
C  3.4279201031 0.0551300049 -0.0025400002
N  4.2315702438 1.1021800041 -0.0084800012
C  5.5484504700 0.6839600205 -0.0115100015
C  5.7389101982 -0.6801900864 -0.0078500006
S  4.2200903893 -1.4749400616 -0.0003300000
H  6.3397903442 1.4247101545 -0.0164600015
H  6.6688904762 -1.2311301231 -0.0091800010
