11

O  1.0989401340 -0.2359200120 0.3065400124
C  2.4686701298 0.0765200034 0.0260900017
C  2.7983303070 -0.6034300327 -1.2758300304
C  3.3364803791 -0.0773000047 -2.3868801594
C  2.6971302032 1.5376801491 0.0325800031
N  2.8627002239 2.6871802807 0.0794400051
H  0.8089000583 0.3577100337 1.0208100080
H  3.0696401596 -0.3844000399 0.8178800344
H  2.5529100895 -1.6648701429 -1.2940601110
H  3.6099600792 0.9704400897 -2.4733402729
H  3.5111603737 -0.7000300884 -3.2604103088
