19

C  0.9581800699 -0.1157600060 0.0029200001
C  2.4754900932 0.0325000025 0.0075600008
C  3.0020201206 1.4861201048 -0.0108700013
C  2.5667002201 2.2321300507 -1.2789601088
C  2.5575101376 2.2683701515 1.2330200672
N  4.4722599983 1.4190200567 -0.0163400006
H  0.6901100278 -1.1766300201 0.0177100021
H  0.5128400326 0.3231600225 -0.8939000368
H  0.5052900314 0.3497100174 0.8828700781
H  2.8705303669 -0.5123100281 -0.8618500233
H  2.8620603085 -0.4883400202 0.8949100375
H  2.8509402275 1.6824001074 -2.1837902069
H  3.0274500847 3.2260701656 -1.3361400366
H  1.4820001125 2.3823502064 -1.3051300049
H  2.8334302902 1.7438300848 2.1551902294
H  1.4728901386 2.4209501743 1.2458900213
H  3.0200703144 3.2624502182 1.2656700611
H  4.8008604050 0.9678000808 0.8368500471
H  4.8632702827 2.3598201275 -0.0066600004
