18

C  3.5150303841 -1.0406100750 1.2304301262
C  2.8133599758 -0.3183700144 0.0867200121
O  1.4021000862 -0.4138000309 0.3207900226
C  3.1751902103 1.1714800596 -0.0463900045
O  2.7936100960 1.8586301804 1.1596901417
C  4.6647105217 1.4317601919 -0.3223600090
N  4.9137206078 2.8811903000 -0.3672700226
H  4.5966100693 -1.0879300833 1.0777701139
H  3.1387400627 -2.0661900043 1.3163701296
H  3.3149902821 -0.5559200048 2.1920101643
H  3.0242900848 -0.8377600312 -0.8541901112
H  1.2140800953 0.2612700164 1.0048700571
H  2.5663802624 1.6104001999 -0.8470300436
H  3.3163204193 2.6885399818 1.1368101835
H  4.9741005898 0.9663001299 -1.2633700371
H  5.2808504105 1.0272400379 0.4864200354
H  4.4426903725 3.2802703381 -1.1812001467
H  5.9104704857 3.0402200222 -0.5227100253
