12

O  1.4390701056 -0.3677500188 -0.9021900892
C  2.5454101562 -0.0749800056 -0.0489700064
C  2.9014501572 1.3754301071 -0.0463700034
C  2.0987901688 2.4289302826 -0.4479100406
S  2.9283802509 3.9162101746 -0.2616000175
C  4.2842407227 3.0580301285 0.3394600153
N  4.1590504646 1.7513101101 0.4134800434
H  1.3401701450 -1.3344500065 -0.8940100670
H  3.4027502537 -0.6647600532 -0.3905100226
H  2.2859702110 -0.3899500370 0.9670900702
H  1.0911300182 2.3856301308 -0.8370800614
H  5.1886906624 3.5699903965 0.6407600641
