13

C  1.0807300806 -0.0182700027 0.7003500462
O  2.4412600994 0.3400600255 0.9136400819
C  2.8940103054 1.3385500908 0.0000000000
C  2.3772003651 2.7052102089 0.4298200309
O  1.4927400351 3.3197703362 -0.1644300073
C  4.3380103111 1.3385500908 0.0000000000
C  5.5281705856 1.3385500908 0.0000000000
H  0.8269000649 -0.8223400712 1.3970401287
H  0.9307800531 -0.3841200173 -0.3200800121
H  0.4196200371 0.8303800225 0.8996500373
H  2.5260503292 1.1234600544 -1.0107400417
H  2.8033401966 3.1018600464 1.3669101000
H  6.5942006111 1.3291001320 0.0023500002
