13

C  1.5993801355 -0.5563900471 1.0177700520
C  2.3961801529 -0.0835900009 0.0496900044
C  3.1174502373 1.2307301760 0.1079400033
C  4.5663504601 1.0077201128 0.0435200036
C  5.7528505325 0.8327500820 -0.0083300006
C  7.2667503357 0.6094000340 -0.0744000077
C  8.4534006119 0.4333900213 -0.1263400018
H  1.1045900583 -1.5168701410 0.9089400768
H  1.4275200367 -0.0059700008 1.9376401901
H  2.5328302383 -0.6763000488 -0.8531400561
H  2.8654301167 1.7787901163 1.0226500034
H  2.7952601910 1.8497301340 -0.7365500331
H  9.5046806335 0.2771600187 -0.1718200147
