14

O  2.5643901825 -0.4061400294 -1.5455601215
C  2.1194102764 0.0326300040 -0.2680300176
C  2.6986100674 1.3975501060 0.0277700014
C  1.9050002098 2.4641001225 0.2130000144
N  4.0632104874 1.5719300508 0.1300400048
C  5.0483903885 0.6386600733 -0.0384900011
O  6.2384905815 0.9071000814 0.0859900042
H  2.0907702446 -1.2325401306 -1.7401900291
H  2.4332201481 -0.6922600269 0.4902000427
H  1.0233600140 0.0554300025 -0.2802799940
H  0.8244300485 2.3844599724 0.1423700154
H  2.3028702736 3.4505002499 0.4282400310
H  4.4232106209 2.4980499744 0.3270600438
H  4.7037200928 -0.3771800101 -0.2753200233
