15

O  2.2260200977 -0.7859000564 0.2566400170
C  1.8579301834 0.5697900653 0.0323800035
C  3.0912301540 1.3902200460 -0.1157300100
C  3.7204003334 1.5891101360 -1.4620901346
N  3.0001201630 2.6837301254 -0.8036000729
N  3.9327702522 3.4856503010 -0.2499100119
C  3.5562801361 4.7198705673 -0.2427900136
H  1.4009300470 -1.2765700817 0.4111400247
H  1.2771601677 0.9181400537 0.8925900459
H  1.2227700949 0.6110400558 -0.8590500355
H  3.7378304005 1.3160400391 0.7511000633
H  3.2339804173 1.1677000523 -2.3317701817
H  4.8004102707 1.6460000277 -1.5238600969
H  4.2222204208 5.4876403809 0.1823300123
H  2.5876002312 5.0701804161 -0.6430100799
