21

C  0.8844900131 -0.3627500534 0.3911900222
N  2.2994501591 -0.7230700850 0.2614200115
C  2.4634103775 -1.6840001345 -0.8312800527
C  3.1076703072 0.4920500219 0.0562800057
C  4.6272401810 0.2685300112 0.0672300011
C  5.1239104271 -0.3391600251 1.3777600527
N  6.5781502724 -0.4934000373 1.3415800333
H  0.7328700423 0.3035300076 1.2475401163
H  0.2739400268 -1.2539100647 0.5784700513
H  0.5006400347 0.1352700144 -0.5071800351
H  1.8190701008 -2.5572202206 -0.6760300994
H  3.4868803024 -2.0714402199 -0.8672100902
H  2.2197203636 -1.2478500605 -1.8068901300
H  2.8792800903 1.2091101408 0.8565900922
H  2.8304002285 0.9803100824 -0.8878300786
H  5.1130404472 1.2412000895 -0.0859800056
H  4.9266700745 -0.3566100299 -0.7817900181
H  4.6676006317 -1.3189101219 1.5542601347
H  4.8576703072 0.3111900389 2.2179303169
H  6.8256206512 -1.1548300982 0.6063700318
H  6.8862404823 -0.9185600877 2.2160000801
