19

C  1.3469601870 -0.3673400283 -0.6929700375
C  2.6537201405 -0.2043800056 0.0673300102
C  3.0304403305 1.2423901558 0.2087500095
C  4.1618003845 1.7680200338 -0.2846400142
C  4.5107207298 3.1602802277 -0.1285700053
C  5.6461501122 3.6841001511 -0.6156100035
C  6.0303301811 5.1199402809 -0.4642500281
H  1.0887001753 -1.4279202223 -0.7773000598
H  1.4236000776 0.0441000015 -1.7052900791
H  0.5229500532 0.1404700130 -0.1798200160
H  3.4414801598 -0.7679000497 -0.4458300173
H  2.5492403507 -0.6394800544 1.0676400661
H  2.3313901424 1.8702301979 0.7579400539
H  4.8598804474 1.1339600086 -0.8273200989
H  3.8115403652 3.7953803539 0.4109100401
H  6.3512501717 3.0565702915 -1.1556600332
H  5.2809405327 5.6940202713 0.0898200125
H  6.1516604424 5.5788402557 -1.4501601458
H  6.9820804596 5.1959905624 0.0703500062
