13

C  1.1243600845 -0.0679600090 0.1521800160
C  2.4389600754 0.0236600004 -0.0613700040
C  3.2025201321 1.3074401617 -0.0707300082
C  4.4866304398 0.7924600840 -0.6162800193
O  5.4395203590 1.5073701143 -0.9109800458
C  4.4897403717 -0.6994300485 -0.7333400846
O  3.1796603203 -1.1125299931 -0.3366200328
H  0.6260900497 -1.0329301357 0.1283600032
H  0.5152400136 0.8072900772 0.3521800339
H  3.3568601608 1.6958200932 0.9379300475
H  2.7683701515 2.0482702255 -0.7450800538
H  4.6663103104 -1.0046100616 -1.7673401833
H  5.2256703377 -1.1349600554 -0.0532100052
