21

C  2.3352401257 -0.4220900238 -1.4386601448
C  2.4854602814 0.0395900048 0.0100900000
C  3.2079102993 -1.0267601013 0.8317300677
C  3.2708904743 1.3499300480 0.0572100058
C  2.5639400482 2.6150102615 -0.5080600381
C  3.2543401718 3.4155602455 0.6136100292
C  3.3047702312 2.1015200615 1.4188500643
H  1.7892401218 0.3189300299 -2.0318601131
H  1.7832502127 -1.3666200638 -1.4923001528
H  3.3118002415 -0.5702900290 -1.9133100510
H  1.4844400883 0.1857300103 0.4338400066
H  4.2224102020 -1.2012201548 0.4552900493
H  2.6650102139 -1.9777401686 0.8015600443
H  3.2931303978 -0.7231900692 1.8805601597
H  4.2815203667 1.2303700447 -0.3632300496
H  1.4707601070 2.6008200645 -0.4264100194
H  2.8399901390 2.8974602222 -1.5277601480
H  4.2420902252 3.8021402359 0.3370900154
H  2.6649301052 4.2227001190 1.0554701090
H  4.2045001984 1.9519901276 2.0213000774
H  2.4228203297 1.9412901402 2.0496902466
