16

C  2.1473801136 -0.4454500377 1.4293700457
C  2.2224402428 0.1439600140 0.0283700023
C  2.8027701378 1.5373301506 0.0363400020
C  2.0127301216 2.6178503036 -0.0792500079
O  4.1759905815 1.5461701155 0.1418100148
C  4.8416204453 2.8034203053 0.1096100062
H  1.7364600897 -1.4599701166 1.3909200430
H  1.4989000559 0.1562000066 2.0764400959
H  3.1376402378 -0.4996400177 1.8948402405
H  1.2192599773 0.1433600038 -0.4136300385
H  2.8386201859 -0.5017400384 -0.6086900234
H  0.9356600642 2.5098800659 -0.1639600098
H  2.3909800053 3.6321902275 -0.0856400058
H  5.9170603752 2.6173403263 0.1821400076
H  4.5477104187 3.4232902527 0.9625300765
H  4.6539802551 3.3230304718 -0.8363400698
