11

O  2.3154401779 -0.9687801003 -0.2930400372
C  2.0775601864 0.1955800205 0.0008600001
C  3.1618201733 1.2004401684 0.0571100041
C  3.5247001648 1.9760301113 -1.1845301390
C  2.8514602184 2.6736001968 -0.0374400020
H  1.0595000982 0.5419099927 0.2451600283
H  3.9851703644 0.9115601182 0.7028700709
H  2.9509301186 1.8014501333 -2.0882902145
H  4.5752301216 2.1780700684 -1.3626201153
H  3.4465301037 3.3555300236 0.5602500439
H  1.8230501413 2.9885303974 -0.1729300022
