15

C  0.9809800386 -1.3674001694 0.0957100093
C  -0.5052900314 -1.5119301081 0.0159600005
C  -1.4868100882 -0.6054300070 -0.0321700014
C  -1.3933101892 0.8277500272 0.0015600001
C  -0.3040000200 1.6002401114 0.0015600001
C  1.0792001486 1.2135800123 -0.0326200016
C  1.6099300385 -0.0127100013 0.0155500006
H  1.4056400061 -1.9669601917 -0.7198400497
H  1.3147301674 -1.8380501270 1.0288500786
H  -0.8230100870 -2.5550003052 -0.0053900001
H  -2.5093002319 -0.9791300893 -0.0890000015
H  -2.3591601849 1.3320300579 0.0273200031
H  -0.4605400264 2.6787602901 0.0271200035
H  1.7705701590 2.0550601482 -0.0898300111
H  2.6995401382 -0.0586800054 -0.0063700005
