19

C  0.9741100669 1.0571800470 0.4958400428
N  2.4129202366 0.9711800814 0.7043700218
C  3.1365704536 1.5537801981 -0.4346900284
C  4.6350102425 1.4662301540 -0.1442200094
N  5.0536503792 1.8912001848 1.2136001587
C  5.4375300407 0.3723000288 -0.8154700994
C  5.5843501091 1.7923401594 -1.2733701468
H  0.4546400309 0.6405100822 1.3630601168
H  0.6622600555 0.4918500185 -0.3885800242
H  0.6511900425 2.0977401733 0.3876400292
H  2.6843903065 -0.0090000005 0.7874100804
H  2.8666200638 2.6102802753 -0.5542600751
H  2.8880200386 1.0266400576 -1.3626201153
H  5.6117401123 1.1641300917 1.6561101675
H  4.2004103661 1.9384301901 1.7825001478
H  4.9264307022 -0.3198600113 -1.4738200903
H  6.2722506523 -0.0697200000 -0.2838500142
H  6.5025305748 2.3163301945 -1.0313000679
H  5.1682500839 2.0653202534 -2.2356400490
