16

C  2.2595202923 -0.4847600460 -1.3720000982
N  2.3546602726 0.0885800049 -0.0348200016
C  3.2141602039 1.2793101072 -0.0729400069
C  2.4042901993 2.5384800434 -0.4611700177
N  3.0717501640 3.2589201927 0.6588200331
C  3.2613003254 1.9396001101 1.3233300447
H  1.5983601809 -1.3565402031 -1.3474701643
H  3.2382600307 -0.8144201040 -1.7362501621
H  1.8349602222 0.2283000201 -2.0859601498
H  2.6884803772 -0.6290600300 0.6078400612
H  4.1925101280 1.1703201532 -0.5549300909
H  1.3162701130 2.4742400646 -0.3374400437
H  2.6180000305 2.9472002983 -1.4530501366
H  3.9509403706 3.6963202953 0.3827400208
H  4.2088103294 1.8356602192 1.8616601229
H  2.4427502155 1.6890101433 2.0106000900
