16

C  0.8916100860 -0.0213800017 0.0849000067
C  2.4024801254 0.0988800079 -0.0904900059
C  2.9423704147 -0.6818500161 -1.2954901457
N  2.3614702225 -0.2219000161 -2.5683102608
C  2.7923202515 1.5657801628 -0.1267700195
O  2.7523303032 2.1272001266 -1.3561301231
O  3.0515301228 2.2146103382 0.8782700896
H  0.5749300122 0.4553900361 1.0192401409
H  0.5843700767 -1.0714501143 0.1214400083
H  0.3456700146 0.4710100293 -0.7268400788
H  2.8880200386 -0.3249800503 0.7987500429
H  2.7425203323 -1.7527201176 -1.1766500473
H  4.0298304558 -0.5553300977 -1.3533601761
H  1.4010502100 -0.5770100951 -2.6380901337
H  2.8524203300 -0.7001200318 -3.3324601650
H  2.5324301720 1.4543001652 -2.0516800880
