16

C  0.7876200676 0.0197800025 0.0306200031
C  2.2635099888 -0.0337600037 0.2595500350
C  3.1053500175 0.9272000790 -0.1376900077
N  4.4549703598 0.8491400480 0.0886900052
C  5.3480706215 1.8315000534 -0.3000000119
C  6.7746405602 1.5253101587 0.0737100095
O  5.0396304131 2.8759703636 -0.8668400645
H  0.4689600468 -0.8523101211 -0.5483300090
H  0.4847300351 0.9197200537 -0.5137800574
H  0.2615000308 0.0072100004 0.9899500608
H  2.6331703663 -0.9136600494 0.7795900702
H  2.7543201447 1.8176401854 -0.6588100195
H  4.8109006882 0.0337800048 0.5721800923
H  6.9392304420 0.4490000308 0.1762300134
H  7.0117006302 2.0189900398 1.0197300911
H  7.4396104813 1.8963501453 -0.7113600373
