14

O  2.7973201275 1.0916399956 -2.3396501541
C  2.2184202671 1.1231499910 -1.2639300823
N  2.8220601082 1.1493901014 -0.0344200023
C  4.2654404640 1.2237800360 0.1064900085
C  4.8065404892 2.6484003067 -0.0394700058
C  4.3454303741 3.5219001770 1.0543301105
C  3.9690103531 4.2388501167 1.9422601461
H  1.1187500954 1.1366201639 -1.1819599867
H  2.2483203411 1.3093901873 0.7838800550
H  4.7206501961 0.5828500390 -0.6571300626
H  4.5138401985 0.8089100718 1.0896201134
H  4.5032000542 3.0741403103 -1.0027201176
H  5.9021406174 2.6141202450 -0.0321300030
H  3.6373703480 4.8806605339 2.7252101898
