17

C  0.9458000660 0.5340900421 0.5067900419
C  2.3794600964 0.5746700764 -0.0190500021
C  2.4732701778 -0.1446800083 -1.3709800243
C  3.8899004459 -0.3317600191 -1.8425701857
C  4.3661403656 0.1705600172 -2.9890601635
C  2.8616502285 2.0087001324 -0.1568600237
O  2.1832702160 2.9992601871 0.0992700085
H  0.8692900538 1.0422800779 1.4743101597
H  0.6080900431 -0.4985700548 0.6423299909
H  0.2536300123 1.0307600498 -0.1831400096
H  3.0334000587 0.0881000087 0.7153100371
H  1.8902101517 0.4013000429 -2.1239602566
H  2.0224001408 -1.1413999796 -1.2862100601
H  4.5496206284 -0.9283301234 -1.2149801254
H  3.7455301285 0.7576801181 -3.6601102352
H  5.3950600624 -0.0049000005 -3.2899904251
H  3.9121003151 2.1280503273 -0.4744300544
