14

C  1.1525000334 0.0159800015 -0.6928500533
O  2.5155503750 -0.0947500020 -0.2999500334
N  3.0940701962 1.1837900877 -0.3436100185
C  4.3254899979 1.0846600533 0.0112400008
C  5.0115604401 2.3447601795 0.0000000000
C  5.6066408157 3.3754703999 0.0000000000
C  6.3286404610 4.6260104179 0.0000000000
H  0.7017200589 -0.9793300629 -0.6593700051
H  1.0828100443 0.4007500410 -1.7148301601
H  0.6116400361 0.6717200875 -0.0037600002
H  4.8503704071 0.1618600041 0.3023100197
H  5.6486001015 5.4736304283 -0.1290600002
H  7.0609903336 4.6582407951 -0.8125300407
H  6.8674101830 4.7700104713 0.9415800571
