9

C  -0.0266700014 0.8663700819 -0.0569300018
C  -0.7355400324 -0.4584800303 -0.0571000054
C  0.7628300190 -0.4081600308 0.0426200032
H  0.0164200012 1.4207000732 -0.9871200919
H  -0.1063600108 1.4858800173 0.8290500641
H  -1.1721200943 -0.8013500571 -0.9874900579
H  -1.2952802181 -0.7361000776 0.8285400271
H  1.2178901434 -0.6517500281 0.9956300855
H  1.3406801224 -0.7171601057 -0.8207500577
