17

C  1.0334200859 -0.0332900025 -0.0632100031
N  2.4767503738 0.1693800092 -0.0576600060
C  3.2903404236 -1.0515000820 0.0035800003
C  3.9301202297 -1.3673701286 -1.3536200523
O  4.9523200989 -0.4319000244 -1.6846201420
C  3.0057201385 1.4297701120 0.0096200006
N  4.2400803566 1.7793401480 0.0627500042
H  0.4836100638 0.9101300836 -0.1462500095
H  0.7168500423 -0.5236900449 0.8633200526
H  0.7414200306 -0.6624800563 -0.9102800488
H  2.6652801037 -1.9018201828 0.3018000126
H  4.0618505478 -0.9412200451 0.7741400599
H  3.1879804134 -1.3710200787 -2.1584401131
H  4.3971605301 -2.3564503193 -1.3160500526
H  4.5140404701 0.4351500273 -1.8008402586
H  2.2424600124 2.2273900509 -0.0087600015
H  4.8521103859 0.9579900503 0.0907200053
