16

C  0.6697800756 -0.7969100475 1.0781500340
C  1.9649400711 -0.8435600400 0.3144900203
C  2.4248802662 -1.9844601154 -0.2262600213
C  2.7360503674 0.4543500245 0.2233800292
C  1.9786300659 1.5147200823 -0.5641800165
N  1.7637001276 1.2284500599 -1.8823701143
O  1.5994801521 2.5758101940 -0.0797500089
H  0.8417500854 -0.4340200126 2.0965402126
H  0.2021000236 -1.7845602036 1.1517900229
H  -0.0444800034 -0.1295000166 0.5856100321
H  1.8735800982 -2.9168002605 -0.1395300031
H  3.3719401360 -2.0248701572 -0.7566100955
H  3.7120602131 0.3122900128 -0.2562500238
H  2.9309802055 0.8393800855 1.2310600281
H  1.8328701258 0.2782700360 -2.2213499546
H  1.1881500483 1.8798000813 -2.3995702267
