13

C  0.8906800747 -0.1249200031 -0.0827800035
C  2.3921802044 0.0592300035 0.0870600119
O  3.0688302517 -0.7177600861 -0.8935900331
C  2.7983403206 1.4937901497 -0.0836200044
C  3.4404201508 2.2115001678 0.8483800292
H  0.3297200203 0.4458300173 0.6643100381
H  0.6246200800 -1.1832400560 0.0156300012
H  0.5608700514 0.1874900162 -1.0805400610
H  2.6927502155 -0.3215800226 1.0691300631
H  2.9002802372 -0.3133300245 -1.7602502108
H  2.5492801666 1.9739600420 -1.0269300938
H  3.7195303440 1.7826701403 1.8060901165
H  3.7100403309 3.2471003532 0.6655500531
