15

C  0.9924900532 -0.0298200008 0.0101800011
C  2.5200002193 0.0000000000 0.0000000000
C  3.0588803291 -0.7624900341 -1.2092500925
C  3.0020201206 1.3611700535 0.0000000000
C  3.3993003368 2.4830701351 0.0000000000
C  3.9269602299 3.8245203495 -0.0006100000
O  3.1851801872 4.7946901321 -0.0009700001
H  0.5958300829 0.4884200096 0.8907500505
H  0.6227599978 -1.0605400801 0.0334100015
H  0.5747100711 0.4597500265 -0.8773300648
H  2.8747601509 -0.5070500374 0.9057800770
H  2.7312700748 -0.3066300154 -2.1509101391
H  2.7148501873 -1.8023002148 -1.1992800236
H  4.1548604965 -0.7721500397 -1.2105500698
H  5.0259604454 3.9022302628 -0.0007600000
