15

C  1.9140300751 -0.6381100416 0.0130700013
C  3.0394501686 0.0387100019 -0.7471300364
O  4.1230201721 0.2520900071 0.1599300057
C  5.2522706985 0.8443600535 -0.3372500241
C  5.5008206367 1.2616701126 -1.5849001408
C  6.8048605919 1.8756401539 -1.8937600851
O  7.0701208115 2.2661101818 -3.0239701271
H  1.0552000999 -0.8167001009 -0.6395800710
H  1.5939800739 -0.0209800024 0.8588100672
H  2.2495901585 -1.5951501131 0.4256000519
H  2.6862103939 0.9982800484 -1.1424901485
H  3.3595802784 -0.6080700159 -1.5723501444
H  5.9697008133 0.9357100725 0.4728100598
H  4.8056507111 1.1820700169 -2.4089300632
H  7.5203504562 1.9622601271 -1.0591700077
