18

N  1.0641500950 -0.1208300069 0.1082100049
C  2.5263702869 -0.0707400069 -0.0462600030
C  3.0171604156 1.3855401278 0.0642000064
O  2.5195002556 1.9304701090 1.2948701382
C  4.5494799614 1.4569001198 0.0450800024
C  5.0458402634 2.8739802837 -0.0757600069
C  5.8261003494 3.3203504086 -1.0676800013
H  0.7598100901 -1.0933200121 0.0447800048
H  0.6264100671 0.3578900397 -0.6806300879
H  2.8169701099 -0.5071000457 -1.0075200796
H  2.9663703442 -0.6746600270 0.7550600767
H  2.5940001011 1.9805800915 -0.7546400428
H  1.6361900568 1.5194901228 1.4027501345
H  4.9379506111 0.8527000546 -0.7834300399
H  4.9528503418 1.0403901339 0.9761600494
H  4.7377305031 3.5603303909 0.7118700743
H  6.1608204842 2.6724400520 -1.8714301586
H  6.1494307518 4.3574604988 -1.0916200876
