18

C  0.9848400950 -0.0706000105 0.1089500114
C  2.4894101620 0.0705500096 0.0057200002
C  3.1540300846 1.1321901083 0.9064500332
C  4.2024402618 0.0411500037 1.2220900059
C  5.4870004654 0.0361200012 0.3904100358
O  6.3229904175 1.1205099821 0.7842300534
N  3.2038700581 -0.9681401253 0.7798900604
H  0.6391700506 -0.9585201144 -0.4311100543
H  0.4891200662 0.8001700640 -0.3327600062
H  0.6493900418 -0.1540600061 1.1486700773
H  2.8219201565 0.1298600137 -1.0391200781
H  2.5591301918 1.4331901073 1.7773600817
H  3.5126802921 2.0300202370 0.3963000178
H  4.4371004105 -0.0382100046 2.2908101082
H  5.2938203812 0.1230000108 -0.6840100288
H  6.0464701653 -0.8893500566 0.5606600642
H  5.8647503853 1.9463901520 0.5538600683
H  3.5699603558 -1.7446501255 0.2314300090
