14

C  1.7862101793 -0.4072100520 0.6305300593
N  3.1621701717 0.0411900021 0.4514600337
C  3.1947801113 1.4211500883 -0.0626800060
C  4.6518201828 1.8777301311 -0.2069600224
O  5.3324003220 1.7171900272 1.0353701115
H  1.7838801146 -1.4345800877 1.0087500811
H  1.2340601683 -0.3953700066 -0.3152500093
H  1.2587400675 0.2142300159 1.3618100882
H  3.6249203682 -0.5760099888 -0.2172300220
H  2.6899902821 2.0805501938 0.6532800794
H  2.6866500378 1.4946200848 -1.0305100679
H  4.7013607025 2.9315402508 -0.4964900613
H  5.1762504578 1.2841900587 -0.9630400538
H  4.9274606705 0.9224600196 1.4399300814
