15

C  1.0440701246 -0.0096400008 -0.0464700051
C  2.5338602066 -0.0029000002 -0.0390700027
N  3.2702903748 -0.6121500731 -1.1399201155
C  3.3115303516 0.8477900624 -1.0207400322
C  4.5713901520 1.5243501663 -0.5678500533
C  5.2400403023 1.9588001966 -1.7997101545
N  5.7637906075 2.3337202072 -2.7653601170
H  0.6637900472 0.7833800316 0.6050200462
H  0.6685100198 -0.9668201208 0.3288900256
H  0.6318800449 0.1491600126 -1.0486600399
H  2.9422399998 -0.1723700017 0.9508300424
H  2.6482000351 -0.8980301023 -1.9000701904
H  2.7403004169 1.4236800671 -1.7431300879
H  5.2151904106 0.8538700938 0.0113700004
H  4.3244905472 2.3872301579 0.0589700043
