13

N  1.2180401087 0.0707200095 0.7578900456
C  2.2986900806 -0.0390600003 0.0809000060
N  3.0304801464 -1.1675400734 -0.1575600207
C  4.0508904457 -0.8606500626 -1.1481100321
C  5.1730303764 0.0884800032 -0.8437200189
C  3.9046504498 0.6172200441 -1.4413700104
O  2.8349602222 1.0530400276 -0.5538499951
H  0.9469500780 1.0595700741 0.7123500705
H  2.5374600887 -2.0451202393 -0.0601900034
H  4.1252703667 -1.5448801517 -1.9828001261
H  5.3856902122 0.3198700249 0.1933800131
H  6.0521402359 0.0510500036 -1.4755800962
H  3.8944602013 0.9415800571 -2.4733402729
