20

C  1.7596001625 -0.6400800347 -1.0305900574
C  2.7961401939 -0.2934200168 0.0271000005
C  3.0076603889 1.1908500195 0.1179600060
C  4.1907300949 1.7900302410 -0.1064800099
C  4.5043702126 3.2599802017 -0.0457200035
C  3.3279602528 4.1875901222 0.2633500099
N  5.5595202446 3.4510602951 0.9485400915
H  1.6102000475 -1.7237000465 -1.0729300976
H  2.0786800385 -0.3028400242 -2.0226001740
H  0.7934900522 -0.1749200225 -0.8068000674
H  3.7334401608 -0.8131901026 -0.2029100209
H  2.4575603008 -0.6606300473 1.0026400089
H  2.1363401413 1.7781301737 0.3944800198
H  5.0423107147 1.1655300856 -0.3767700493
H  4.9089202881 3.5464403629 -1.0240000486
H  2.8900902271 3.9804003239 1.2466601133
H  2.5391499996 4.0831804276 -0.4900100231
H  3.6471302509 5.2362003326 0.2564100027
H  5.1861505508 3.2213602066 1.8690102100
H  5.8087606430 4.4376201630 0.9885100722
