17

C  -1.4818500280 0.7614900470 0.0887500048
C  -1.4845101833 -0.7611500621 -0.0592900030
C  -0.2110100091 -1.4388400316 0.4359100163
O  0.8584700823 -1.1217700243 -0.4456200600
C  1.6227900982 -0.0032100002 -0.0198200010
O  0.8704500794 1.1178200245 0.4233200550
C  -0.2190000117 1.4362901449 -0.4349000454
H  -2.3554203510 1.1675300598 -0.4333400130
H  -1.5975501537 1.0013800859 1.1525701284
H  -1.6247401237 -1.0015500784 -1.1213001013
H  -2.3477702141 -1.1662400961 0.4817800522
H  0.0223800018 -1.1851800680 1.4764600992
H  -0.3516800404 -2.5239403248 0.3873200119
H  2.2810301781 -0.3140300214 0.7984200716
H  2.2636103630 0.3073100150 -0.8519300818
H  -0.3555200100 2.5219101906 -0.3834100068
H  -0.0079300003 1.1822301149 -1.4807101488
