18

N  1.3856300116 0.4611100256 -1.4218900204
C  2.7751703262 0.2066300213 -1.0097800493
C  3.1349403858 1.0484601259 0.2323600203
O  2.1790401936 0.7808700204 1.2588001490
C  4.4969105721 0.7116200328 0.7582200766
C  5.7082405090 1.4984301329 0.3230100274
C  5.1863107681 1.6402400732 1.7253601551
H  1.1680700779 -0.1334600002 -2.2213799953
H  1.3091900349 1.4207000732 -1.7623201609
H  3.4616000652 0.4212200344 -1.8366601467
H  2.8597502708 -0.8603700399 -0.7716100216
H  3.0619502068 2.1153402328 -0.0110300006
H  1.3388100863 0.6443600059 0.7758000493
H  4.6109004021 -0.3509700000 0.9442200661
H  5.5762805939 2.3397002220 -0.3476200402
H  6.6394906044 0.9617700577 0.1828300059
H  5.7540407181 1.1925101280 2.5335001945
H  4.6800704002 2.5597903728 2.0005202293
