14

O  1.3408900499 -0.3313800097 -0.8571300507
C  2.3800601959 0.6020200253 -1.1138399839
C  2.3421103954 1.6586401463 -0.0662100017
C  3.1331803799 1.5357900858 1.1859400272
N  3.5125801563 2.4620802402 0.1535300165
C  3.3869302273 3.8286502361 0.3587800264
O  2.4934301376 4.4066801071 0.9657400250
H  1.3431601524 -0.9660600424 -1.5935200453
H  2.2157201767 1.0454200506 -2.1009402275
H  3.3343904018 0.0647100061 -1.1238800287
H  1.3955100775 2.1858401299 -0.0356600024
H  3.8273801804 0.7164900899 1.3074901104
H  2.7444403172 1.9793500900 2.0937702656
H  4.2246603966 4.3682603836 -0.1132600084
