14

O  1.0171700716 -0.1028400064 0.1002900004
C  2.2277400494 -0.0138600003 0.0402900018
C  3.2520902157 -1.1408700943 0.0566400029
N  4.5538601875 -0.3634100258 -0.0385000035
C  4.2774400711 0.7203500867 -1.1114600897
C  3.2110302448 1.1928200722 -0.0746000037
C  4.3599205017 0.8397100568 0.9198800921
H  3.1316001415 -1.7924001217 -0.8121800423
H  3.2074103355 -1.6958401203 0.9967401028
H  3.9018003941 0.3387000263 -2.0667703152
H  5.1178603172 1.3982800245 -1.3071701527
H  2.8093802929 2.2000401020 -0.1170500144
H  5.2101807594 1.5317901373 0.9664400816
H  4.0652103424 0.5731800795 1.9404602051
