19

C  0.6929900646 0.2954200208 0.4531000257
C  1.8829401731 0.1160300076 -0.4770000279
C  3.1114604473 0.8869301081 -0.0247100014
C  3.8501203060 0.2669300139 1.1535500288
N  5.1676201820 0.8616900444 1.3868100643
C  3.8401501179 1.6991901398 -1.0893800259
N  3.0389502048 2.3631801605 -0.0714800060
H  -0.1519500166 -0.3066100180 0.1034000069
H  0.3720900118 1.3411999941 0.4841000438
H  0.9308800697 -0.0154800015 1.4745001793
H  1.5844300985 0.4215900302 -1.4870300293
H  2.1329801083 -0.9497100711 -0.5435700417
H  3.9722602367 -0.8107900620 0.9956200719
H  3.2512800694 0.4008000195 2.0593900681
H  5.7862205505 0.5827400684 0.6258300543
H  5.5684404373 0.4452100396 2.2261102200
H  3.4371802807 1.7353900671 -2.0949201584
H  4.9070105553 1.8680300713 -1.0342000723
H  3.6495704651 2.7359702587 0.6653100252
