11

N  1.0000001192 0.0000000000 0.0000000000
C  2.1510102749 0.0000000000 0.0000000000
C  3.5950102806 0.0000000000 0.0000000000
C  4.1725902557 -1.2040400505 -0.7082400322
C  4.4761805534 -0.5756800175 -2.0117001534
N  4.4715905190 0.7111300826 -2.0253400803
O  4.1127099991 1.1347501278 -0.7195900083
H  3.9674601555 0.0517500043 1.0285100937
H  3.4963700771 -2.0551800728 -0.8120300770
H  5.1171507835 -1.5360500813 -0.2673400044
H  4.7416205406 -1.1892200708 -2.8848702908
