20

C  1.3169500828 0.2309000194 0.1858900189
C  2.7972502708 0.0037100003 -0.1284900010
C  2.9353003502 -0.7861101031 -1.4321900606
N  3.4605603218 1.3072000742 -0.2849800289
C  3.9242002964 1.8897200823 0.9757400751
C  4.8938703537 1.2751500607 -0.0031400004
C  5.7999405861 2.1405000687 -0.8073000312
H  1.1908401251 0.7740000486 1.1289901733
H  0.7924800515 -0.7260700464 0.2835700214
H  0.8200100660 0.8051201105 -0.6045200825
H  3.2329902649 -0.5946700573 0.6833100319
H  2.4954900742 -0.2468500137 -2.2790801525
H  2.4275701046 -1.7536301613 -1.3522500992
H  3.9871003628 -0.9837400317 -1.6666301489
H  3.7187004089 1.3627901077 1.8990701437
H  3.8612000942 2.9689002037 1.0405300856
H  5.3542904854 0.3284700215 0.2537800372
H  5.3351907730 3.0951201916 -1.0778901577
H  6.0879507065 1.6292601824 -1.7320702076
H  6.7126302719 2.3566801548 -0.2421500236
