16

N  0.9286600947 -0.0717900023 -0.0894200131
C  2.3728902340 -0.0265400019 0.1372400075
C  3.0361702442 1.2468200922 -0.4506100118
O  3.2039501667 1.1616501808 -1.8688300848
C  4.0897603035 0.1026100069 -2.2415301800
C  3.7798802853 -1.1880301237 -1.5409702063
C  2.9786601067 -1.2579400539 -0.4653900266
H  0.5076300502 0.8112000823 0.1878300160
H  0.5139800310 -0.7954500318 0.4916800559
H  2.5472700596 -0.0233800020 1.2196900845
H  2.4269802570 2.1323401928 -0.2355900258
H  4.0177903175 1.4180600643 0.0117700007
H  5.1213803291 0.4067500532 -2.0326602459
H  3.9935302734 -0.0340800025 -3.3234503269
H  4.2166805267 -2.0932199955 -1.9509701729
H  2.7575302124 -2.2191503048 -0.0124100009
