19

C  2.3806302547 -0.2652700245 -0.6665900350
O  3.5000102520 0.5611700416 -0.3822000325
C  3.2210602760 1.9328401089 -0.0300700031
C  2.5308201313 2.6692500114 -1.1860700846
C  2.3883202076 2.0299901962 1.2527199984
C  4.6081399918 2.5653903484 0.2337000221
O  5.4468402863 2.4327201843 -0.9161300659
H  2.7557401657 -1.2629500628 -0.9129000902
H  1.8223601580 0.1030700132 -1.5306800604
H  1.7253100872 -0.3612900078 0.2024600208
H  3.0471704006 2.4898500443 -2.1358802319
H  2.4947702885 3.7493503094 -1.0058500767
H  1.4989300966 2.3262202740 -1.3200101852
H  2.8254003525 1.4171700478 2.0494902134
H  1.3660800457 1.6673201323 1.0988500118
H  2.3190002441 3.0647702217 1.6067401171
H  5.1172099113 2.0546901226 1.0588700771
H  4.5304207802 3.6293003559 0.4799000323
H  5.3352003098 1.5022001266 -1.1955600977
