15

C  1.1293200254 -0.2918200493 -0.0154800015
C  2.6346399784 -0.1303900033 -0.1031600088
S  3.1229901314 1.5787001848 0.0645900071
O  2.6071102619 2.3036501408 -1.0810101032
O  2.7935001850 1.9973101616 1.4145201445
C  4.8561100960 1.4659901857 -0.0457900017
C  5.4655599594 1.4785101414 -1.2385400534
H  0.8535600901 -1.3457701206 -0.1161700040
H  0.6263200045 0.2702500224 -0.8083400726
H  0.7488300800 0.0709000081 0.9444301128
H  2.9963502884 -0.4890800118 -1.0718101263
H  3.1233801842 -0.6962100863 0.6964000463
H  5.4050302505 1.4028201103 0.8838700652
H  4.9114599228 1.5685801506 -2.1695401669
H  6.5475606918 1.4248400927 -1.3068500757
