15

C  1.0232800245 -0.0497500040 -0.0269600023
N  2.4815201759 -0.0129000014 -0.0235800017
C  2.9645001888 1.3733201027 -0.0407600030
C  4.4873003960 1.3905501366 0.0130200014
C  5.0315203667 2.7948403358 -0.0001300000
O  4.3498902321 3.8078804016 -0.1202000082
H  0.6866400242 -1.0903501511 -0.0062000006
H  0.6131300330 0.4196500480 -0.9265400767
H  0.6124300957 0.4474100173 0.8571500778
H  2.8243200779 -0.5031800270 -0.8498401046
H  2.5645501614 1.9203801155 0.8224101067
H  2.6163401604 1.8836801052 -0.9475500584
H  4.9158406258 0.8619700074 -0.8457900286
H  4.8467001915 0.9061100483 0.9282300472
H  6.1292204857 2.8693602085 0.0895500109
