16

O  2.5099301338 -0.5798500776 1.3301600218
C  2.3204202652 -0.0325700045 0.0312600024
C  2.8486201763 1.3804000616 0.0097100008
C  2.0285902023 2.4081301689 -0.2795300186
C  4.2750406265 1.5317101479 0.3484500349
C  5.3153901100 1.1797801256 -0.6855300069
N  5.0583004951 2.5669102669 -0.3319100440
H  2.0749602318 -1.4481000900 1.3306601048
H  1.2515801191 -0.0734700039 -0.2056600153
H  2.8570802212 -0.6534301043 -0.6935300827
H  0.9793800712 2.2628502846 -0.5117300749
H  2.4028601646 3.4278802872 -0.2898800075
H  4.5166106224 1.3574100733 1.3921500444
H  4.9978899956 0.8836500645 -1.6780401468
H  6.2537202835 0.7555000782 -0.3505500257
H  5.7727603912 2.9288601875 0.3005200028
