18

C  2.4929201603 -0.4274300337 -1.6542800665
N  2.3740701675 0.0918800011 -0.2983200252
C  3.2129602432 1.2637801170 -0.0801100060
C  3.2909603119 1.6023401022 1.4195200205
C  3.4101603031 3.1242303848 1.4944200516
C  2.7716603279 3.5553503036 0.2165300101
C  2.6505901814 2.5330700874 -0.6388800144
H  1.8580701351 -1.3129800558 -1.7583501339
H  3.5215203762 -0.7260600924 -1.8812601566
H  2.1579799652 0.2999600172 -2.3998301029
H  2.6435301304 -0.6382100582 0.3591100276
H  4.2262601852 1.1007200480 -0.4695400298
H  4.1302204132 1.0987700224 1.9115800858
H  2.3777601719 1.2895001173 1.9458302259
H  4.4548501968 3.4498202801 1.5286000967
H  2.8835101128 3.5182702541 2.3683300018
H  2.4663801193 4.5713901520 0.0092500011
H  2.2390000820 2.6209301949 -1.6340800524
