13

C  1.0855400562 -0.0029500001 0.1318100095
C  2.5832102299 0.0855800062 -0.0452000052
C  3.3074102402 -1.2189601660 -0.0648000091
C  4.2741303444 -1.4718101025 0.8237000704
N  3.0902702808 1.2690800428 -0.2053900063
O  4.4705405235 1.2252200842 -0.4325600266
H  0.7459700704 0.7872000933 0.8078400493
H  0.7949300408 -0.9706200957 0.5505500436
H  0.6022600532 0.1265000105 -0.8409100771
H  2.9775202274 -1.9543501139 -0.7879000306
H  4.5816502571 -0.7282500267 1.5530800819
H  4.7907605171 -2.4257302284 0.8263500333
H  4.6947107315 2.1683001518 -0.5337500572
