17

C  0.3564700186 -2.0340802670 0.0852200091
C  1.7944900990 -2.1536703110 -0.3295499980
C  2.4492301941 -3.3242902756 -0.2472900152
O  2.3169703484 -0.9612500668 -0.7766600847
C  3.6779103279 -0.9338101149 -1.2038201094
C  3.9925804138 0.4734900594 -1.6136500835
C  4.4807305336 0.8317800164 -2.8088202477
H  -0.2478200197 -1.6735501289 -0.7535100579
H  0.2603100240 -1.3224800825 0.9117100835
H  -0.0632800087 -2.9904701710 0.4139200449
H  1.9487700462 -4.2149901390 0.1216300055
H  3.4852702618 -3.4488401413 -0.5362400413
H  3.8240404129 -1.6252101660 -2.0420501232
H  4.3375501633 -1.2110401392 -0.3734700084
H  3.7978601456 1.2417701483 -0.8690200448
H  4.6844205856 0.1013500094 -3.5855603218
H  4.6793003082 1.8747800589 -3.0359001160
