15

C  0.9835400581 0.0183800012 -0.1307100058
C  2.5008301735 -0.0160300005 0.0250500012
C  2.9853003025 -1.3173600435 0.6744800806
C  3.5246500969 -0.8449600339 1.9932800531
O  3.9356603622 -1.5665301085 2.8890202045
C  3.5392301083 0.6206800342 2.0836701393
C  2.9736802578 1.0635501146 0.9569700956
H  0.6463900208 -0.7873700261 -0.7904900312
H  0.6573300362 0.9688200951 -0.5656500459
H  0.4760600328 -0.1007100120 0.8329500556
H  2.9667503834 0.1066600084 -0.9601400495
H  3.8004102707 -1.7657800913 0.0983800068
H  2.1851403713 -2.0459899902 0.8264500499
H  3.9427204132 1.1733300686 2.9117801189
H  2.8485002518 2.1148502827 0.7318700552
