17

C  0.8931100368 1.7671902180 1.5186101198
C  1.6789001226 1.7625601292 0.4344900250
C  2.7752802372 0.7579500675 0.1894300282
C  4.1613302231 1.4007000923 0.0489500053
N  4.6050906181 1.9584901333 1.3139700890
C  5.8554606438 2.4466302395 1.5432500839
N  6.9244003296 2.2544302940 0.8616800308
H  0.1070900112 2.5084502697 1.6330301762
H  1.0041300058 1.0319100618 2.3104801178
H  1.5160300732 2.5135402679 -0.3378000259
H  2.5388801098 0.2238200158 -0.7385700941
H  2.7970302105 0.0091500012 0.9908201098
H  4.1445002556 2.1862101555 -0.7153400779
H  4.8638401031 0.6268200278 -0.2812500298
H  3.8644104004 2.4021799564 1.8519102335
H  5.9027504921 3.0734102726 2.4503800869
H  6.7298808098 1.6383601427 0.0727900118
