15

C  1.0478900671 -0.0046600001 0.1304200143
C  2.3822200298 -0.0216800030 0.0537200049
C  3.2737503052 1.1761101484 -0.0083699999
O  4.4124999046 0.7583100200 -0.7725000978
C  4.5818805695 -0.6477600336 -0.5337400436
C  3.2420601845 -1.1680600643 -0.1111500040
C  2.9411902428 -2.4541900158 0.1024500057
H  0.4565000534 -0.9133100510 0.1088500097
H  0.5047600269 0.9322800636 0.1999200135
H  3.6125102043 1.4714101553 0.9910600781
H  2.8102500439 2.0341601372 -0.5032300353
H  4.9348001480 -1.1130200624 -1.4590400457
H  5.3313903809 -0.7785700560 0.2538400292
H  1.9594901800 -2.7694501877 0.4368600547
H  3.6842901707 -3.2319502831 -0.0383900031
