12

O  1.0963100195 -0.0036600004 0.4734200239
C  2.2692699432 -0.0105700009 0.1714000106
C  3.3136904240 1.0901000500 -0.0679900050
C  4.2341899872 -0.0126900012 -0.6623100638
C  3.2836604118 -1.1231499910 -0.1334200054
C  4.3754901886 0.0280300025 -2.1036601067
N  4.4839706421 0.0606100038 -3.2579300404
H  3.6799004078 1.5386801958 0.8606300950
H  2.9843103886 1.8766101599 -0.7518300414
H  5.2136702538 -0.0405400060 -0.1666800082
H  2.9336702824 -1.8587402105 -0.8622300625
H  3.6368703842 -1.6355201006 0.7668100595
