13

C  0.8732300401 -0.2225800306 -0.0950000137
C  2.3689100742 -0.0385000035 0.1106200069
C  2.7516002655 1.4121900797 0.0831200033
C  3.3053803444 2.0585501194 1.1210501194
C  3.6608004570 3.4341402054 1.0565900803
N  3.9524302483 4.5559301376 1.0089401007
H  0.6183400750 -1.2871601582 -0.0841600075
H  0.5506700277 0.1918500215 -1.0562601089
H  0.3016200066 0.2706500292 0.6981800199
H  2.9130403996 -0.5613700747 -0.6846300364
H  2.6625301838 -0.5047300458 1.0582700968
H  2.5665302277 1.9449000359 -0.8504800797
H  3.5020601749 1.5476300716 2.0560002327
