19

C  1.1401600838 -0.4386900067 0.5352700353
C  2.4219701290 -0.1972400099 -0.2700900137
C  2.6450803280 -1.3197101355 -1.2910200357
O  1.6738700867 -1.2849701643 -2.3302202225
C  2.3604001999 1.2035200596 -0.9162100554
C  3.5960800648 1.5782201290 -1.7272001505
O  4.7569503784 1.4762601852 -0.9139900208
H  1.0423500538 0.3044600189 1.3340801001
H  1.1552300453 -1.4283201694 1.0027700663
H  0.2469200194 -0.3720200360 -0.0938200057
H  3.2589702606 -0.2238300145 0.4384500086
H  2.6047701836 -2.3037800789 -0.8112000823
H  3.6315603256 -1.2322801352 -1.7557001114
H  0.8237200379 -1.5556502342 -1.9426101446
H  2.2423999310 1.9407701492 -0.1111500040
H  1.4744501114 1.2901201248 -1.5571300983
H  3.5100002289 2.6118001938 -2.0768301487
H  3.7167901993 0.9317401052 -2.6008102894
H  5.5108203888 1.7498800755 -1.4639500380
