15

C  0.4776100516 0.2856500447 -0.0082200002
C  1.7271301746 -0.5495300293 -0.1019700095
C  1.5798701048 -1.9717901945 -0.6266400814
O  2.0460002422 -2.9058501720 0.3311300278
N  2.8586101532 -0.0186300017 0.2633500099
N  3.9501903057 -0.8740200400 0.1376500130
C  5.0403099060 -0.2603800297 0.4572500288
H  0.7034700513 1.2771700621 0.3935100138
H  -0.2406900227 -0.2115400285 0.6489900351
H  0.0403600000 0.3935900331 -1.0043600798
H  2.1526103020 -2.0821602345 -1.5522100925
H  0.5294600725 -2.1879801750 -0.8393900394
H  2.9379200935 -2.5713102818 0.5662500262
H  6.0023503304 -0.7932300568 0.4127800465
H  5.0661005974 0.7947500944 0.7810400724
