18

C  1.4571801424 -0.3831900060 0.0089200009
N  2.8996801376 -0.3612500131 0.2393500209
C  3.4868202209 0.8870200515 -0.2830200195
C  4.9902701378 0.9669200778 0.0393100046
O  5.1983704567 0.6689800620 1.4330301285
C  5.8384003639 -0.0073900004 -0.7817500234
O  7.2164602280 0.1659400165 -0.4482200444
H  1.0393000841 -1.3090600967 0.4152100086
H  1.2240201235 -0.3473600447 -1.0602900982
H  0.9617500901 0.4522000253 0.5130700469
H  3.3101203442 -1.1640800238 -0.2412700206
H  2.9940402508 1.7311601639 0.2140400112
H  3.3236002922 0.9810801148 -1.3623701334
H  5.3527703285 1.9885401726 -0.1191200092
H  4.4372205734 0.1022800058 1.6825802326
H  5.7204403877 0.1674400270 -1.8549600840
H  5.5860104561 -1.0485100746 -0.5595900416
H  7.2327103615 0.2611200213 0.5255900621
