13

C  0.9752300382 -0.1895100027 0.1359000206
C  2.4588701725 0.0749300048 -0.0863500014
C  2.7934901714 1.5449501276 -0.0445100032
C  3.1249904633 2.2263803482 -1.1548300982
C  2.7920200825 2.2146501541 1.2187800407
N  2.7887802124 2.7539103031 2.2462801933
H  0.7712700963 -1.2635201216 0.0748700052
H  0.3661800325 0.3136000335 -0.6227500439
H  0.6492500901 0.1576200128 1.1217501163
H  2.7509002686 -0.3583100140 -1.0513200760
H  3.0437102318 -0.4562200606 0.6750200391
H  3.1488304138 1.7480100393 -2.1300001144
H  3.3796503544 3.2836401463 -1.1224400997
