12

C  2.7852201462 -1.0914601088 0.4112000167
C  2.1963901520 0.0827800035 0.1533800066
C  2.9384601116 1.2943301201 0.1184500083
C  2.4887201786 2.5805902481 -0.1305300146
C  3.6230003834 3.4016501904 -0.0461000055
N  4.7193102837 2.7010602951 0.2352700233
O  4.2974905968 1.3882400990 0.3385800421
H  2.2029800415 -2.0064601898 0.4338500202
H  3.8508901596 -1.1781401634 0.6052500606
H  1.1283800602 0.1213700101 -0.0346400030
H  1.4728000164 2.8761901855 -0.3440000117
H  3.7031800747 4.4711699486 -0.1753800213
