15

C  0.9846200347 -0.0132600013 0.1251800060
C  2.4868602753 0.0789900050 -0.0760700107
O  2.7809500694 0.2099900097 -1.4892100096
C  3.2121603489 1.1105101109 0.8387600780
C  4.1417503357 0.0241800006 1.4201300144
C  3.3136403561 -1.0209200382 0.6637600660
O  3.3440401554 -2.2354500294 0.6100600362
H  0.7261000872 -0.1143500134 1.1851900816
H  0.5713200569 -0.8789500594 -0.4027900398
H  0.4861800373 0.8841000795 -0.2562500238
H  3.4545803070 -0.4679400623 -1.6830002069
H  2.5708801746 1.5873202085 1.5889800787
H  3.7415502071 1.9020301104 0.2972500324
H  5.1774406433 0.0751800016 1.0734699965
H  4.1129002571 -0.0818300098 2.5061302185
