13

N  1.1778601408 -0.2227400243 -0.5073200464
C  2.4972202778 -0.1328800023 -0.1817000061
N  3.1307101250 -1.2000701427 0.1851900220
C  3.1972501278 1.1758600473 -0.2489200085
C  4.4674401283 1.3040801287 0.1582000107
C  5.1399102211 2.5539402962 0.0941100046
C  5.7134203911 3.6071703434 0.0419400036
H  0.6416600943 0.6366800666 -0.4721700251
H  0.6726800799 -1.0129201412 -0.1270500124
H  2.5055301189 -2.0051701069 0.1337700039
H  2.6408503056 2.0164501667 -0.6442900896
H  5.0157804489 0.4506100118 0.5474000573
H  6.2262606621 4.5393104553 -0.0040200003
