14

C  1.3486901522 -0.4995000362 0.1575900167
O  2.7581002712 -0.3012500107 0.1578800231
N  3.0105702877 1.0622700453 -0.0590900034
C  4.2865700722 1.2457201481 -0.0988400057
O  4.9075202942 2.4432902336 -0.3066400290
C  4.0836000443 3.5591602325 -0.4550200105
C  4.4520101547 4.6101002693 -1.1889901161
H  1.1498301029 -1.5663400888 0.2900100350
H  0.9190400839 -0.1760300100 -0.7946500182
H  0.8903500438 0.0505800061 0.9856500626
H  5.0415506363 0.4508600235 0.0220300015
H  3.1503002644 3.5056002140 0.0919300020
H  5.4027299881 4.6222100258 -1.7111802101
H  3.8038604259 5.4743103981 -1.2846701145
