16

C  0.8744200468 -0.1375000030 -0.0311600026
C  2.3322002888 0.2130400240 0.2022100240
C  3.4840402603 -0.6593600512 -0.4584000409
N  4.3470706940 0.5879899859 -0.1954900175
C  3.0719902515 1.2470800877 -0.7511200309
C  3.0426902771 0.7010800838 -2.1298201084
C  3.3221001625 -0.5929300189 -1.9310301542
H  0.2288200259 0.6763000488 0.3150600195
H  0.6067100167 -1.0389600992 0.5299600363
H  0.6421700120 -0.3200600147 -1.0844900608
H  2.4727101326 0.4066700041 1.2776800394
H  3.8088104725 -1.5917201042 0.0014100001
H  4.5199003220 0.7768700719 0.7901300192
H  2.9629001617 2.3201103210 -0.5996800065
H  2.8620603085 1.2246100903 -3.0529003143
H  3.4258103371 -1.3861001730 -2.6514701843
