17

C  1.6447401047 -0.4499600232 -0.8425200582
O  1.6108900309 0.9006600380 -0.4035700262
C  2.9202103615 1.4383800030 -0.1361800134
C  3.4109704494 2.4742701054 -1.1111700535
C  2.9287502766 2.8935604095 0.2528100312
C  3.8829302788 3.3779201508 1.2888201475
O  3.9640703201 4.7943906784 1.2239600420
H  0.6250200272 -0.7616600394 -1.0836200714
H  2.0305302143 -1.0937900543 -0.0464200042
H  2.2652399540 -0.5456400514 -1.7385301590
H  3.6563503742 0.7946400642 0.3372300267
H  2.7820301056 2.7063901424 -1.9630402327
H  4.4729499817 2.4995903969 -1.3240101337
H  1.9663600922 3.3870103359 0.3306900263
H  4.8894400597 2.9677002430 1.1536500454
H  3.5323202610 3.1013500690 2.2876901627
H  4.1516003609 5.0254302025 0.2987400293
