18

C  0.8887100816 0.1327600032 -0.0333300009
C  2.4228901863 0.0266400017 0.0192600023
N  2.7677202225 -0.7994200587 1.1764700413
C  2.9048802853 -0.7291300297 -1.2034101486
C  3.7753903866 -0.3356600404 -2.1452302933
C  2.9945001602 1.4296400547 0.1245000064
C  3.7804503441 1.9497600794 1.0810800791
H  0.5566500425 0.6933700442 -0.9162500501
H  0.4892500341 0.6460100412 0.8502801061
H  0.4137700200 -0.8554900289 -0.0806900039
H  2.4430103302 -0.3338600099 2.0202801228
H  3.7825202942 -0.8497900367 1.2386400700
H  2.4819202423 -1.7291401625 -1.3105300665
H  4.2619304657 0.6333400011 -2.1234900951
H  4.0298204422 -0.9976400733 -2.9678101540
H  2.7124502659 2.0938501358 -0.6937500238
H  4.1201105118 1.3800300360 1.9385300875
H  4.1095399857 2.9828803539 1.0174601078
