16

C  1.5474201441 -0.1411200166 -0.4652000368
O  2.9623200893 -0.1302400082 -0.3148700297
N  3.3807301521 1.2009900808 -0.1673800051
C  4.6650304794 1.2171400785 -0.0544700064
C  5.3250107765 2.5286102295 0.1000500023
C  5.3443307877 3.2040300369 1.4490600824
C  6.6121807098 2.6383402348 0.8798400760
H  1.2232201099 -1.1752700806 -0.6069800258
H  1.2544100285 0.4433400333 -1.3428900242
H  1.0684601068 0.2596500218 0.4330900311
H  5.2916502953 0.3089300394 -0.0770500079
H  5.2220206261 3.1759502888 -0.7656300664
H  4.8834300041 2.6917002201 2.2863101959
H  5.2286901474 4.2815103531 1.4733101130
H  7.3625202179 3.3339102268 0.5210700035
H  7.0206608772 1.7485700846 1.3455001116
