17

C  -1.2132201195 -0.0015500002 1.0039501190
C  -0.6182200909 -1.0116801262 0.0013100002
C  0.8728801012 -1.2729600668 0.2185000181
C  1.6677401066 -0.0003000000 -0.1018800065
C  0.8735101223 1.2714501619 0.2224900275
C  -0.6172400713 1.0115600824 0.0040500006
O  -0.8094700575 0.0021200003 -1.0559800863
H  -0.7981800437 -0.0030700003 2.0142099857
H  -2.3068802357 -0.0011000001 1.0528200865
H  -1.2281601429 -1.9048800468 -0.1598800123
H  1.0511300564 -1.5829800367 1.2541100979
H  1.2171300650 -2.0882301331 -0.4270200431
H  1.8813700676 0.0013000001 -1.1797901392
H  2.6399202347 -0.0015100001 0.4020900130
H  1.2182800770 2.0888202190 -0.4205000103
H  1.0521200895 1.5784001350 1.2592301369
H  -1.2270400524 1.9061300755 -0.1538000107
