18

C  0.9337300658 -0.5657100081 0.6110400558
C  2.3191699982 -0.4245600402 -0.0261400025
C  2.7136902809 -1.7404701710 -0.6979000568
C  2.3188199997 0.7644701004 -1.0093901157
C  3.6595203876 1.0569000244 -1.6885302067
C  4.6970205307 1.4568500519 -0.7287300229
N  5.5181803703 1.7723001242 0.0269700009
H  0.6503300667 0.3537300229 1.1341800690
H  0.9223400354 -1.3811601400 1.3420600891
H  0.1684200168 -0.7768101096 -0.1437200159
H  3.0340802670 -0.2244000137 0.7812900543
H  2.0744302273 -1.9530102015 -1.5613601208
H  2.6230802536 -2.5771303177 0.0033900004
H  3.7530703545 -1.7174600363 -1.0389000177
H  1.9892202616 1.6654300690 -0.4744400382
H  1.5720701218 0.5808600187 -1.7930500507
H  3.5129902363 1.8719202280 -2.4076199532
H  3.9959001541 0.1931900084 -2.2709300518
