21

C  0.8398700953 -0.3563500345 -0.2750200331
C  2.3385603428 -0.6530100703 -0.3528200090
N  2.6438200474 -1.3046200275 -1.6291002035
C  3.1521804333 0.6423800588 -0.1966800243
C  4.6762905121 0.4574800432 -0.2251900136
C  5.2370300293 -0.4681000412 0.8563200831
N  4.9274606705 0.0160800014 2.1975302696
H  0.5877500772 0.1026400030 0.6868700385
H  0.2523100078 -1.2764500380 -0.3664300442
H  0.5225400329 0.3285800219 -1.0688500404
H  2.5864703655 -1.3466901779 0.4576400518
H  2.3878500462 -0.6851100326 -2.3972301483
H  2.0611901283 -2.1344699860 -1.7332501411
H  2.8672101498 1.1348501444 0.7414600253
H  2.8810100555 1.3437100649 -0.9970200658
H  5.1438102722 1.4459002018 -0.1282600015
H  4.9827504158 0.0753900036 -1.2068400383
H  6.3258204460 -0.5277700424 0.7442300916
H  4.8500704765 -1.4850001335 0.7368600368
H  5.3365001678 0.9403600693 2.3259201050
H  5.3752202988 -0.5905600786 2.8826003075
