17

C  1.0093801022 -0.3115300238 0.0373800024
C  2.5114102364 -0.0725499988 0.0473500006
C  2.8380100727 1.4171400070 -0.0620100051
N  4.2901406288 1.6132302284 -0.0134200007
N  4.6162405014 2.9662601948 -0.1638400108
C  4.9896903038 3.7238101959 0.9178301096
O  5.2936105728 4.9078702927 0.8378900290
H  0.7958600521 -1.3820900917 0.1103500053
H  0.5587900281 0.0634000078 -0.8866900802
H  0.5279900432 0.1894100010 0.8829200268
H  2.9664902687 -0.6196300387 -0.7874600291
H  2.9329202175 -0.4836700559 0.9728500843
H  2.3641602993 1.9576301575 0.7668400407
H  2.4326901436 1.8153201342 -1.0006000996
H  4.7371001244 1.0756400824 -0.7609500289
H  4.6109104156 3.4252600670 -1.0714801550
H  4.9840502739 3.1677002907 1.8699401617
