16

C  1.0952901840 -0.0076500010 0.0569200031
N  2.5516202450 0.0086300010 -0.0208000019
C  3.1133503914 1.0232100487 0.9190701246
C  4.1766304970 -0.0245100018 1.3383001089
N  5.3186903000 0.0308900028 0.4074600339
C  3.1355202198 -1.0598900318 0.8373900652
H  0.7038800716 -0.8688700199 -0.4948200285
H  0.6876700521 0.8930000663 -0.4142700136
H  0.7075600624 -0.0579800047 1.0811400414
H  2.4537804127 1.3181600571 1.7465500832
H  3.4832303524 1.9355001450 0.4392100275
H  4.4475903511 -0.0637400076 2.3951702118
H  4.9985704422 0.1490700096 -0.5580800176
H  5.8731403351 -0.8231600523 0.3997100294
H  3.5267703533 -1.9236900806 0.2897199988
H  2.4842801094 -1.4331101179 1.6393101215
