15

C  0.7744800448 1.3595401049 -0.0949300081
C  -0.7221400142 1.1783900261 0.1885600090
C  -0.9936400652 -0.2458400279 -0.1965500116
N  -0.7458300591 -1.3445801735 0.7228300571
C  0.3124600053 -0.9831300974 -0.2059800029
C  1.3958101273 -0.0168600027 0.1729900241
H  0.9124700427 1.6179701090 -1.1523500681
H  1.2262401581 2.1522200108 0.5078700185
H  -1.3213101625 1.8811501265 -0.3984500468
H  -0.9395400286 1.3431800604 1.2500700951
H  -1.6884400845 -0.3936500251 -1.0104501247
H  -0.5497300029 -1.0094101429 1.6671200991
H  0.5359900594 -1.6490200758 -1.0267500877
H  1.6611701250 -0.1246300042 1.2309401035
H  2.3004801273 -0.1630400121 -0.4251400530
