17

C  1.0307900906 0.0013100002 -0.0480900034
C  2.5215401649 0.0009100001 -0.0202600025
C  3.3475301266 -0.7398300171 -1.0471100807
C  2.7289903164 -1.5224500895 -2.1555800438
C  3.3017501831 0.7723100781 -1.0606801510
C  4.4693703651 1.4924001694 -0.6486100554
C  5.4479107857 2.1007602215 -0.3057400286
H  0.6444200873 0.7091200352 0.6923700571
H  0.6471100450 -0.9928500652 0.2015500218
H  0.6295200586 0.2907500267 -1.0244899988
H  2.8912501335 -0.0148200011 0.9999800920
H  4.2519602776 -1.2247000933 -0.6911600232
H  1.8548101187 -1.0255900621 -2.5872702599
H  2.4191501141 -2.5080201626 -1.7929700613
H  3.4586403370 -1.6707401276 -2.9583301544
H  2.7375202179 1.2391700745 -1.8625200987
H  6.3131704330 2.6377503872 -0.0001900000
