13

C  1.1059000492 -0.0492500030 0.0858800039
C  2.4336402416 0.0204600021 -0.0446700044
C  3.2499601841 1.2559601068 0.0138200009
C  4.4456400871 0.8416700363 -0.7937200665
C  4.4240403175 -0.6526400447 -0.6842000484
O  5.3697800636 -1.3781300783 -0.9597700834
O  3.1912302971 -1.1144300699 -0.3096700311
H  0.5902300477 -1.0015801191 0.0083800005
H  0.5057600737 0.8347500563 0.2725900114
H  3.5348904133 1.4707101583 1.0498300791
H  2.7529103756 2.1336700916 -0.4084500372
H  4.3432402611 1.1208400726 -1.8477001190
H  5.3713803291 1.2522301674 -0.3825800419
