18

C  1.0558201075 0.0294300020 -0.0851100087
C  2.5477702618 0.0366100036 -0.0981500074
C  3.2985403538 -0.6263100505 -1.2183901072
C  3.3418002129 0.8821001053 -1.0751800537
N  2.6045203209 1.6826701164 -2.0779900551
C  4.6316199303 1.5110601187 -0.5683000088
O  5.4359302521 1.8849401474 -1.6856101751
H  0.6796200275 0.9202800989 0.4269800484
H  0.6930000782 -0.8504400849 0.4555500448
H  0.6252900362 0.0024000001 -1.0910500288
H  2.9414203167 -0.0711500049 0.9073200226
H  2.7276201248 -1.0622400045 -2.0306301117
H  4.1804704666 -1.2018400431 -0.9584200382
H  2.3545801640 1.1187101603 -2.8881301880
H  3.2236201763 2.4146401882 -2.4383802414
H  5.2086105347 0.8272401094 0.0627500042
H  4.4108104706 2.4130101204 0.0111600002
H  5.5291004181 1.0850000381 -2.2303001881
