19

C  1.0029801130 0.0277300011 0.0611800067
C  2.3441603184 0.0066500008 0.0273800027
C  3.1346702576 -1.2781300545 0.0148000009
C  4.1015005112 -1.3076400757 -1.1694900990
C  4.9820704460 -0.0583000034 -1.2155799866
C  4.1437602043 1.2217000723 -1.2092701197
C  3.1760001183 1.2624301910 -0.0255700015
H  0.4509300590 0.9633501172 0.0603200048
H  0.4207400084 -0.8872700334 0.0904500037
H  2.4756603241 -2.1533401012 -0.0339900032
H  3.6981103420 -1.3565200567 0.9536000490
H  4.7340903282 -2.2000701427 -1.1048901081
H  3.5339202881 -1.3856101036 -2.1047801971
H  5.6574902534 -0.0552300029 -0.3511900008
H  5.6102905273 -0.0826600045 -2.1131300926
H  4.8062906265 2.0943102837 -1.1729900837
H  3.5790901184 1.2890701294 -2.1484503746
H  3.7417101860 1.3529300690 0.9092500806
H  2.5466701984 2.1561901569 -0.1046700105
