15

C  1.1938900948 -0.1956100166 -0.3075300455
N  2.6406302452 -0.1018500105 -0.1595900059
C  3.0491101742 1.2867401838 0.0528600067
C  4.5288305283 1.3107801676 0.2589600384
C  5.4849004745 1.4632900953 -0.8952800632
O  5.1513204575 2.5682301521 -0.0425500050
H  0.9094800353 -1.2426700592 -0.4509900510
H  0.8421600461 0.3709600270 -1.1760100126
H  0.6786600351 0.1653800160 0.5886000395
H  3.0827300549 -0.4534200132 -1.0080800056
H  2.5656001568 1.6960700750 0.9469900727
H  2.7627701759 1.9077100754 -0.8048000932
H  4.8517303467 0.7895000577 1.1503901482
H  5.0933904648 1.4752001762 -1.9044500589
H  6.4763803482 1.0391100645 -0.7974700332
