17

C  3.3451302052 -1.5457301140 -0.9436600208
C  2.9174902439 -0.5901200771 0.1367500126
C  2.1568801403 -0.9917900562 1.1698700190
C  3.3496003151 0.8469500542 -0.0242800005
C  4.8495602608 0.9489400983 0.1067100093
N  5.5782103539 1.3043301105 -0.9050200582
N  6.8983507156 1.3450101614 -0.6146500111
H  3.0291903019 -1.1773000956 -1.9248001575
H  2.9081602097 -2.5404901505 -0.8070900440
H  4.4334306717 -1.6604301929 -0.9471901059
H  1.8333102465 -2.0233001709 1.2697501183
H  1.8282401562 -0.3000000119 1.9400901794
H  2.9105000496 1.4853401184 0.7497600317
H  3.0288202763 1.2313001156 -0.9986900687
H  5.2818503380 0.7159700394 1.0987401009
H  7.3857903481 1.8571201563 -1.3557001352
H  7.3001403809 0.4036300182 -0.6551100612
