11

C  2.8915600777 -1.1100701094 0.3861400187
C  2.2976701260 0.0548600033 0.0987500101
C  3.0066502094 1.2870401144 0.0731400102
N  2.4783501625 2.4681203365 -0.2028700113
C  3.5363900661 3.3213202953 -0.1025300026
N  4.6967501640 2.7533001900 0.2188900262
O  4.3604102135 1.4065401554 0.3381900191
H  2.3164303303 -2.0308101177 0.3958300352
H  3.9501802921 -1.1865600348 0.6172900200
H  1.2368701696 0.0901600048 -0.1270600110
H  3.4618201256 4.3864603043 -0.2677800059
