22

C  0.9804600477 -0.0771000087 -0.0569400042
N  2.4410099983 0.0442600027 -0.0820500106
C  2.9704003334 -0.7918900251 -1.1637800932
C  2.9500503540 1.4471302032 -0.0729000121
C  2.5222201347 2.2709300518 -1.3056401014
C  2.4528603554 2.1800100803 1.1967700720
C  4.4959406853 1.4544200897 0.0020600003
H  0.5435100198 0.4056300223 0.8213800788
H  0.6890300512 -1.1314101219 0.0205100011
H  0.5093000531 0.3310000300 -0.9565600753
H  2.6026902199 -1.8200000525 -1.0640901327
H  4.0602502823 -0.8733300567 -1.1218200922
H  2.6795201302 -0.4304700494 -2.1551601887
H  2.8893201351 1.8320101500 -2.2389602661
H  2.9272902012 3.2883403301 -1.2499200106
H  1.4343301058 2.3649203777 -1.3789100647
H  2.6734402180 1.6014500856 2.1014401913
H  1.3759901524 2.3757200241 1.1687201262
H  2.9423403740 3.1552801132 1.3058800697
H  4.8568801880 0.8269800544 0.8248800635
H  4.8775005341 2.4680802822 0.1729499996
H  4.9571900368 1.1023300886 -0.9267801046
