19

C  3.0690002441 -1.1254100800 -0.6455700994
C  2.5428202152 0.0472900011 0.1686900109
C  3.3466503620 1.3295301199 -0.0557500049
C  3.2974102497 1.8619501591 -1.4965901375
C  3.3913402557 3.3399102688 -1.2996501923
C  3.1512401104 3.6860704422 -0.0304300021
C  2.8589503765 2.4942600727 0.8209000826
H  2.4951601028 -2.0295801163 -0.4179100394
H  4.1202502251 -1.3242599964 -0.4130400419
H  2.9834802151 -0.9368401170 -1.7202701569
H  2.5772500038 -0.2185000181 1.2318700552
H  1.4886502028 0.2133200169 -0.0829100013
H  4.3979701996 1.1289700270 0.2009600252
H  2.3635201454 1.6097400188 -2.0100700855
H  4.1400303841 1.4826900959 -2.0830202103
H  3.5929303169 4.0379500389 -2.1007802486
H  3.1319403648 4.7026104927 0.3370100260
H  3.4121003151 2.5297901630 1.7645601034
H  1.7872002125 2.4406502247 1.0397800207
