15

O  0.9379100204 -0.0013500000 0.0082600005
C  2.3785901070 0.0067200004 0.0128000006
C  3.0426902771 1.0571300983 0.9343500733
C  4.1252503395 0.0044100005 1.2429500818
C  3.0772101879 -1.0795201063 0.8888600469
C  3.5800402164 -2.2362899780 0.1771000028
C  4.0007801056 -3.1978702545 -0.4045000374
H  0.6981400251 -0.7856600285 -0.5157500505
H  2.7593703270 0.0608500019 -1.0163000822
H  2.4352200031 1.3402101994 1.8016400337
H  3.4003102779 1.9636601210 0.4391800463
H  4.9865903854 0.0551100038 0.5651500225
H  4.4891605377 -0.0052600005 2.2741301060
H  2.4673602581 -1.3642201424 1.7579700947
H  4.3800206184 -4.0538001060 -0.9149800539
