18

N  0.6725300550 -0.3974300325 -0.0242200010
C  2.0888800621 -0.6523300409 -0.2513000071
C  2.6381599903 -0.5200100541 -1.6426901817
C  2.9744904041 0.5143300295 -0.6003300548
C  4.3742203712 0.6084900498 -0.0610000044
C  4.4116601944 1.2357000113 1.3293100595
O  3.9135601521 0.3264400363 2.3061101437
H  0.4813300371 -0.1628800184 0.9489800930
H  0.1181800067 -1.2297600508 -0.2275000066
H  2.5163602829 -1.4490000010 0.3560600281
H  1.9617701769 -0.2330400050 -2.4389300346
H  3.4061503410 -1.2210701704 -1.9502002001
H  2.5192501545 1.4916200638 -0.7193600535
H  4.9607200623 1.2306901217 -0.7488200665
H  4.8402705193 -0.3848600388 -0.0323100016
H  3.8246700764 2.1570901871 1.3790601492
H  5.4443001747 1.4712201357 1.6022901535
H  2.9693000317 0.1995000094 2.1130700111
