18

C  1.0170700550 0.0018500001 0.0777200013
C  2.5307400227 0.0103800008 -0.0731500089
C  3.2221202850 1.0447500944 -1.0213501453
C  2.8682901859 0.0668300018 -2.1772601604
C  3.2343702316 -0.9779800773 -1.0753301382
N  4.6805806160 -0.7249000072 -0.8545300364
C  4.6956501007 0.7455300689 -0.8038401008
H  0.6949500442 0.8479500413 0.6943100095
H  0.6924100518 -0.9171300530 0.5772700310
H  0.4841300547 0.0674600080 -0.8742500544
H  2.9488403797 -0.0155400010 0.9445500970
H  2.8639802933 2.0715401173 -1.0555701256
H  3.5091502666 0.0959500074 -3.0656902790
H  1.8302601576 0.0692700073 -2.5231802464
H  2.9015603065 -2.0104701519 -1.1640100479
H  5.0329403877 -1.0995000601 0.0261400025
H  5.3253703117 1.1590400934 -1.5976401567
H  5.0501904488 1.1124401093 0.1651900113
