13

C  0.8718300462 2.2464101315 0.0908200070
C  2.1656303406 2.1859600544 -0.2277400047
O  2.9531002045 1.1236201525 0.1390500069
C  4.3375406265 1.1682699919 0.0000000000
C  5.0091204643 0.0130200014 -0.0739100054
C  5.0405402184 2.3859002590 0.0000000000
C  5.6356205940 3.4166102409 0.0000000000
H  0.2600200176 3.0851702690 -0.2216700166
H  0.4034400284 1.4588000774 0.6717600822
H  2.6550700665 2.9496502876 -0.8160200715
H  4.4792604446 -0.9331500530 -0.0512300022
H  6.0898509026 -0.0171400011 -0.1606500149
H  6.1685905457 4.3386902809 0.0034400003
