20

C  0.9632100463 -0.8209300637 0.2725000381
C  2.4106202126 -0.3937100172 -0.0003100000
C  3.1775202751 -1.5600800514 -0.6247800589
C  2.4510302544 0.8730701208 -0.8772900701
O  1.7489601374 1.9295802116 -0.2063900232
C  3.8787901402 1.3765901327 -1.1775400639
N  3.8153202534 2.6932501793 -1.8332101107
H  0.4078400135 -0.0355800018 0.7955400944
H  0.9344900846 -1.7165400982 0.9028500319
H  0.4349800348 -1.0473401546 -0.6602700353
H  2.8633100986 -0.1616300046 0.9723801017
H  2.8031902313 -1.7887501717 -1.6286001205
H  3.0777204037 -2.4638001919 -0.0134000015
H  4.2469100952 -1.3399200439 -0.6997400522
H  1.9249001741 0.6905200481 -1.8229001760
H  2.1300401688 2.7519400120 -0.5816200376
H  4.4216103554 0.6758300066 -1.8184701204
H  4.4352807999 1.4963201284 -0.2417100221
H  3.3919203281 2.5872802734 -2.7564501762
H  4.7671003342 3.0214903355 -2.0017302036
