13

C  0.9748300910 0.0336800031 -0.0079300003
N  2.4088702202 0.0113400007 0.0013500000
C  3.2479200363 1.1026800871 0.0030600003
C  4.5150303841 0.6673300862 0.0089600002
N  4.5078406334 -0.7040200830 0.0102700004
C  3.1809203625 -1.1681001186 0.0047800005
O  2.8099503517 -2.3270502090 0.0029400003
H  0.6019700766 1.0616800785 0.0071700006
H  0.6062100530 -0.5084800720 0.8675900698
H  0.6188099980 -0.4782500267 -0.9065400958
H  2.8793601990 2.1166400909 0.0000200000
H  5.4320201874 1.2354801893 0.0119600007
H  5.3062806129 -1.3195700645 0.0135400007
