14

C  1.4119901657 2.4600701332 0.5846600533
N  2.6551501751 2.4603102207 0.2407100201
O  3.1200301647 1.1377900839 0.2408700138
C  4.5044002533 1.1477000713 -0.1731700152
C  5.5444102287 1.5907801390 0.8603500724
O  6.3228607178 0.3833600283 0.6600400209
C  5.2370204926 -0.1950500011 -0.1051600054
H  0.8577100635 3.4096603394 0.6423299909
H  0.8563400507 1.5392301083 0.8301300406
H  4.6256303787 1.6333800554 -1.1498200893
H  5.1909503937 1.6663100719 1.8932101727
H  6.1108303070 2.4877500534 0.5955900550
H  5.5806703568 -0.5864300132 -1.0666201115
H  4.7323203087 -0.9862700701 0.4575300217
