17

C  3.6901702881 -1.6977301836 1.2183201313
C  3.2537701130 -0.8884600997 0.0285500027
C  2.6366002560 -1.4592200518 -1.0192700624
C  3.5033001900 0.6045300364 0.0889300033
C  4.9943904877 0.9656200409 0.0533100031
N  5.1861305237 2.4159801006 0.0648200065
H  4.7803306580 -1.6971502304 1.3059700727
H  3.3646402359 -2.7403101921 1.1459001303
H  3.2648503780 -1.2823600769 2.1372001171
H  2.4432601929 -2.5279302597 -1.0526500940
H  2.3030002117 -0.8750500679 -1.8727701902
H  3.0434501171 1.0024100542 1.0032601357
H  2.9938104153 1.1016200781 -0.7475300431
H  5.4641103745 0.5485600233 -0.8443500400
H  5.5095205307 0.5446100235 0.9224700928
H  4.7618603706 2.8211703300 -0.7691600323
H  6.1830005646 2.6213402748 0.0039900001
