20

C  3.0103502274 -1.0898901224 -0.1532700062
C  2.6545403004 -0.0290900022 0.8820900321
C  3.5132203102 1.2488201857 0.7701401114
C  3.0535702705 2.3312802315 1.7755000591
N  1.6844701767 2.7879502773 1.5353001356
C  4.9788703918 0.9456300735 1.0075200796
C  5.9483203888 1.1656401157 0.1107700095
H  2.3108303547 -1.9292701483 -0.0846700072
H  4.0180301666 -1.4856601954 0.0048300005
H  2.9519402981 -0.6831300259 -1.1677900553
H  2.7493302822 -0.4631600380 1.8855001926
H  1.5962601900 0.2248300165 0.7484000325
H  3.3903000355 1.6537501812 -0.2443200052
H  3.7207002640 3.2000503540 1.7166301012
H  3.1175103188 1.9452000856 2.7999401093
H  1.6236500740 3.2015802860 0.6056400537
H  1.4602600336 3.5331501961 2.1936001778
H  5.2433805466 0.5183000565 1.9738502502
H  5.7372303009 1.5843701363 -0.8685900569
H  6.9820904732 0.9233700633 0.3393200338
