17

C  0.9767500758 0.0101100001 -0.1295800060
C  2.4802801609 0.0010200001 0.1443500072
C  3.1417903900 1.3096601963 -0.2830400169
C  3.6147801876 1.2306300402 -1.7272300720
N  4.4604101181 0.0530200042 -1.8417102098
N  3.9809303284 -1.1619701385 -1.5018701553
C  3.0849802494 -1.1952800751 -0.5609500408
H  0.4874000251 0.8285300732 0.4124000371
H  0.5159500241 -0.9288800359 0.1979500204
H  0.7601900101 0.1267600060 -1.1973600388
H  2.6240100861 -0.1450800002 1.2211201191
H  2.4650602341 2.1629803181 -0.1487900168
H  4.0082702637 1.4968000650 0.3663000166
H  4.1901102066 2.1290299892 -1.9770001173
H  2.7702803612 1.1689001322 -2.4214000702
H  4.9173703194 0.0168400016 -2.7557101250
H  2.7107601166 -2.1875102520 -0.2517200112
