12

C  1.0207901001 0.0180500001 -0.1543300152
N  2.4516000748 0.0160000008 0.0718800053
C  3.1444602013 -1.2570800781 0.0236000009
C  3.1630702019 1.1930600405 0.1759300083
O  4.3793106079 1.2926200628 0.2728900015
H  0.6076600552 1.0254900455 -0.0559700057
H  0.5435500145 -0.6393000484 0.5780500770
H  0.8233100772 -0.3517200351 -1.1642800570
H  2.6761002541 -1.9435200691 0.7341000438
H  4.2026004791 -1.1483601332 0.2777400017
H  3.0613403320 -1.6629800797 -0.9880500436
H  2.5161902905 2.0858302116 0.1745600104
