17

C  1.0139200687 0.0375399999 0.0088000009
C  2.4989802837 -0.0030200002 -0.0280000027
C  3.2794003487 -1.0896900892 -0.1058800146
C  4.7339701653 -0.7323500514 -0.0726200044
C  4.7136402130 0.7781600356 -0.3400600255
O  4.9230904579 1.0256100893 -1.7354000807
C  3.3129003048 1.2563500404 0.0671100020
H  0.5818100572 -0.9661300778 -0.0605800040
H  0.6284600496 0.6283900142 -0.8280800581
H  0.6676400304 0.4906100333 0.9429800510
H  2.9219102859 -2.1095001698 -0.1493100077
H  5.1411805153 -0.9609100223 0.9176800847
H  5.2925500870 -1.2797201872 -0.8375300169
H  5.5039901733 1.3046001196 0.2031400204
H  4.2144403458 0.5586300492 -2.2142100334
H  2.9353401661 2.0322999954 -0.6059700847
H  3.3007602692 1.6217200756 1.0995399952
