14

C  0.9913200736 -0.0094200000 0.0883900076
C  2.5200002193 0.0000000000 0.0000000000
C  2.9770700932 -0.7583900690 -1.2551400661
C  4.4199900627 -1.0414700508 -1.2267900705
N  5.5549006462 -1.2863700390 -1.2092900276
C  3.0020201206 1.3611700535 0.0000000000
C  3.3993003368 2.4830701351 0.0000000000
H  0.6463000774 0.5154000521 0.9867500663
H  0.6095899940 -1.0350500345 0.1344700009
H  0.5357500315 0.4832000434 -0.7786000371
H  2.9047501087 -0.5161500573 0.8897500634
H  2.7307300568 -0.1924400181 -2.1624600887
H  2.4429001808 -1.7143001556 -1.3238900900
H  3.7613902092 3.4859204292 0.0032300004
