16

C  0.3710900247 1.5766800642 0.5362400413
C  1.4048700333 0.5554900765 -0.0049900003
C  0.5180400610 -0.3998900354 -0.8223800659
N  -0.4671000540 0.5626200438 -1.3728401661
C  -0.9467101097 1.0470700264 -0.0556200072
C  -1.2710601091 -0.2721300125 0.5882400870
C  -0.3767700493 -1.1555501223 0.1200800091
H  0.6039300561 2.5802402496 0.1617899984
H  0.3655000329 1.6033000946 1.6312401295
H  1.9373401403 0.0507600047 0.8083500862
H  2.1376402378 1.0651800632 -0.6412900090
H  1.0224900246 -1.0078300238 -1.5746800900
H  0.0126600014 1.3108201027 -1.8682101965
H  -1.7746500969 1.7552500963 -0.1103700101
H  -2.0406000614 -0.4496300220 1.3215200901
H  -0.2768600285 -2.1919002533 0.3982300460
