13

C  1.0123100281 -0.0337600037 -0.2815100253
N  2.4455101490 0.0026400003 -0.0851500034
C  3.1943202019 1.1509101391 -0.0129400017
C  4.5268001556 1.2288601398 -0.0793100074
C  5.1963806152 2.5387201309 0.0178400017
O  6.4142904282 2.6408302784 -0.0643100068
H  0.6517000198 -1.0619801283 -0.1864200085
H  0.7522700429 0.3327400088 -1.2792100906
H  0.5006000400 0.5779100657 0.4676100314
H  2.9496901035 -0.8369401097 -0.3640400171
H  2.5859003067 2.0454802513 0.1159700081
H  5.1656703949 0.3644200265 -0.2017900199
H  4.5434803963 3.4148001671 0.1650700122
