18

C  -0.9136800766 0.0013400001 -1.1595401764
C  -0.5957000852 1.0446100235 -0.0390800014
C  -1.2326101065 -0.0015400001 0.9221100807
C  -0.5961400867 -1.0447100401 -0.0420600064
C  0.9000800848 -1.2193700075 0.2492800206
N  1.6622301340 -0.0004100000 -0.0737000033
C  0.9003900886 1.2180100679 0.2526800036
H  -1.9573501348 0.0020300001 -1.4980401993
H  -0.2677800059 0.0025800001 -2.0415902138
H  -1.1354500055 1.9938302040 -0.1026300043
H  -0.8790400624 -0.0028100002 1.9570701122
H  -2.3299202919 -0.0012400001 0.9326300621
H  -1.1359900236 -1.9938602448 -0.1081100032
H  1.0556300879 -1.4857001305 1.3010101318
H  1.3017301559 -2.0450801849 -0.3487300277
H  1.8473300934 0.0010000000 -1.0776801109
H  1.3022000790 2.0451502800 -0.3429600298
H  1.0559400320 1.4812201262 1.3051100969
