12

N  1.0120100975 -0.0675900057 -0.1159400046
C  2.4693701267 -0.0258800033 -0.0128100002
C  3.2879002094 -0.7056500316 -1.0713900328
C  3.2636902332 0.7931700349 -0.9981001019
O  4.4471602440 1.4306801558 -0.4926700294
H  0.5961700082 0.7188100815 0.3837900162
H  0.6404400468 -0.9101500511 0.3213800192
H  2.8502602577 -0.0689800009 1.0047800541
H  2.7712502480 -1.1712801456 -1.9034601450
H  4.1855001450 -1.2282800674 -0.7666800618
H  2.7142703533 1.3190701008 -1.7730301619
H  4.9550504684 0.8541100621 0.1019500047
