19

C  0.7058700323 0.6916400194 0.8231900334
C  2.1908299923 0.5898200274 0.6897500157
C  2.9905400276 1.6377701759 0.4343200326
C  4.4256601334 1.5083101988 0.3108700216
C  5.3101205826 2.4925901890 0.0562200062
C  4.9852905273 3.9463202953 -0.1551100016
C  6.7827906609 2.1791701317 -0.0392800048
H  0.3971500397 0.3482000232 1.8149601221
H  0.2209200114 0.0598600060 0.0732100084
H  0.3461500406 1.7172200680 0.6898900867
H  2.6115601063 -0.4053000212 0.8128000498
H  2.5456602573 2.6208903790 0.3157500029
H  4.8086900711 0.4957100451 0.4420700371
H  3.9207704067 4.1757602692 -0.0895600095
H  5.3261103630 4.2655901909 -1.1465801001
H  5.4970302582 4.5573801994 0.5962499976
H  6.9950108528 1.1164300442 0.1185500100
H  7.3396506310 2.7441103458 0.7148000598
H  7.1636004448 2.4496700764 -1.0295600891
