17

C  0.7934900522 0.1034000069 -0.0723500028
C  2.2587201595 0.0037800004 0.1809100211
C  3.1716103554 -0.9145500660 -0.6033900380
C  2.7858202457 -1.4893401861 -1.9269402027
C  2.9712102413 -0.3308500350 -2.9064700603
O  2.8569302559 0.8791400194 -2.1348199844
C  3.2604103088 0.5752500296 -0.7778600454
H  0.4043300152 1.0308700800 0.3597400486
H  0.2751100361 -0.7339800596 0.4052500129
H  0.5361000299 0.0991500095 -1.1352200508
H  2.4713301659 0.1135800034 1.2397600412
H  3.9807903767 -1.4269900322 -0.1044500098
H  3.4051601887 -2.3455801010 -2.2105901241
H  1.7437602282 -1.8252201080 -1.9137901068
H  3.9707300663 -0.3495000303 -3.3544802666
H  2.2226901054 -0.3370700181 -3.7033903599
H  4.1210603714 1.0946600437 -0.3727500141
