14

C  0.9529200792 -0.0220600013 0.0118300002
C  2.1529800892 -0.0070500006 0.0106200008
C  3.5994203091 0.0113100009 0.0055000004
C  4.2670602798 1.0548501015 0.9394900799
C  5.3494005203 -0.0050400002 1.2305401564
C  4.2939300537 -1.0715601444 0.8727200627
H  -0.1130300090 -0.0353600048 0.0131800007
H  4.0119304657 0.0484800041 -1.0125200748
H  3.6785402298 1.3311800957 1.8230301142
H  4.6238903999 1.9672201872 0.4537000358
H  6.1975002289 0.0274700020 0.5370300412
H  5.7261400223 -0.0324600041 2.2558600903
H  4.6733202934 -1.9423601627 0.3309500217
H  3.7132802010 -1.4175500870 1.7367202044
