17

C  1.0735400915 -0.1293900162 -0.3719900250
C  2.4016401768 0.0289300028 -0.3540100455
C  3.0870203972 1.2851101160 -0.2098000199
C  4.4187502861 1.4199101925 -0.1551400125
C  4.8322401047 2.8419303894 0.0282700025
C  3.5475702286 3.6094903946 -0.2696200311
C  2.4035201073 2.6139602661 -0.0754600018
H  0.6411900520 -1.1191000938 -0.4840100408
H  0.3832800388 0.7020300627 -0.2754100263
H  3.0267102718 -0.8579500914 -0.4523200393
H  5.1301002502 0.6066500545 -0.2049200088
H  5.1740002632 3.0088701248 1.0548700094
H  5.6309404373 3.1265900135 -0.6628300548
H  3.5591301918 3.9604601860 -1.3100200891
H  3.4374501705 4.4933404922 0.3670500219
H  1.6297202110 2.7731602192 -0.8331800103
H  1.9558801651 2.7169401646 0.9192600250
