16

C  1.7637001276 -0.3324600160 0.3961100578
N  0.7445800304 -1.3639301062 0.6424600482
C  -0.1062500104 -0.8014700413 -0.4195500314
C  -1.4485901594 -0.4805300236 0.0854700059
C  -1.4922201633 0.7846300602 0.5246000290
C  -0.1815600097 1.5005100965 0.3905700147
C  0.7149300575 0.5066200495 -0.3590200245
H  2.5879402161 -0.6780400872 -0.2391300201
H  2.1836600304 0.1232800111 1.2972300053
H  1.0532000065 -2.3189301491 0.4763800204
H  -0.0744900033 -1.3382500410 -1.3724701405
H  -2.2743501663 -1.1765900850 0.1019100100
H  -2.3713302612 1.2462000847 0.9527200460
H  0.2243400216 1.7578802109 1.3741401434
H  -0.3123500347 2.4190104008 -0.1901200265
H  1.0532901287 0.8879800439 -1.3292901516
