17

C  0.8305900693 -0.2620400190 0.2409100235
C  2.3089702129 0.0364900045 -0.0185800008
C  3.1886804104 -0.6831400990 1.0082100630
N  2.6859102249 -0.4373700321 -1.3777101040
C  2.5774903297 1.5627501011 0.0616000034
N  3.7790102959 1.9472701550 -0.4721000493
O  1.8266501427 2.3787500858 0.5812700391
H  0.1862900108 0.2664300203 -0.4715400338
H  0.5335300565 0.0596100017 1.2458001375
H  0.6165600419 -1.3337100744 0.1582700163
H  2.9776802063 -0.3230900168 2.0219702721
H  4.2555003166 -0.5108900070 0.8231000900
H  3.0180201530 -1.7657401562 0.9946901202
H  2.0429501534 -0.0165600013 -2.0515401363
H  2.5137603283 -1.4419600964 -1.4316802025
H  4.2129302025 1.3081901073 -1.1303200722
H  3.9601001740 2.9374501705 -0.5512700677
