13

N  2.5341801643 -1.5307300091 0.8128600121
C  2.2900900841 -0.6062800884 -0.1358800083
S  1.0332001448 -0.7967900634 -1.2010500431
N  3.1173701286 0.4561700225 -0.2182000279
C  4.4024400711 0.6095400453 0.4284500182
C  4.9381504059 1.9489301443 0.1768200099
C  5.3753705025 3.0490002632 -0.0283600017
H  2.9896602631 -1.2682900429 1.6743201017
H  1.8526101112 -2.2769601345 0.8947900534
H  2.9292800426 1.0661100149 -1.0057200193
H  5.0711402893 -0.1625400186 0.0333300009
H  4.2852501869 0.4382900298 1.5029201508
H  5.7605705261 4.0258903503 -0.2099400163
