18

C  0.9824001193 -0.0919800028 0.0348100029
C  2.4961202145 0.0045500007 0.0456000045
C  3.1613702774 1.0901800394 0.9487500787
O  2.4068303108 1.5670200586 2.0886602402
C  4.2002601624 -0.0266000032 1.2405802011
N  3.1244504452 -1.0133700371 0.9421501160
C  3.6577501297 -2.1266703606 0.1636400223
H  0.6549500823 -0.9664900303 -0.5379599929
H  0.5476800203 0.7951200604 -0.4381400347
H  0.5616700053 -0.1748300195 1.0427601337
H  2.8913700581 0.0329500027 -0.9808200598
H  3.5670902729 1.9443501234 0.3952600360
H  2.1281201839 0.7432600260 2.5320100784
H  5.0574607849 -0.0182300024 0.5553700924
H  4.5722103119 -0.0648100078 2.2688801289
H  2.8365402222 -2.7545301914 -0.1992400140
H  4.2908802032 -2.7556800842 0.7992800474
H  4.2534003258 -1.8151301146 -0.7032100558
