14

C  1.1856501102 0.1449300051 -0.1376800090
N  2.6439301968 0.2071000189 -0.0367100053
C  3.3218903542 -0.6597900391 -0.9976500869
C  3.2725200653 0.8331400156 -1.2208001614
C  4.4626502991 1.6695801020 -0.9197400212
O  4.6854605675 1.8228400946 0.4080700278
O  5.1503705978 2.1616501808 -1.7973201275
H  0.7539500594 1.0788201094 0.2368100137
H  0.8106700778 -0.6701200008 0.4898700416
H  0.8089100718 -0.0146700013 -1.1554400921
H  2.7260103226 -1.2966500521 -1.6415200233
H  4.2572503090 -1.0994001627 -0.6695500612
H  2.6280903816 1.2145200968 -2.0042202473
H  3.9933803082 1.3001400232 0.8758100867
