12

C  0.9675800800 -0.0091800010 -0.0077500003
C  2.4440302849 0.0414800011 -0.0009400001
C  3.2898502350 1.0640300512 0.0046300003
O  4.6382703781 0.6965000629 0.0105500007
C  4.5446100235 -0.6895600557 0.0082400013
O  5.4970102310 -1.4523501396 0.0119300010
N  3.2219803333 -1.0623400211 0.0012800001
H  0.5354300141 0.9969800711 -0.0044500004
H  0.5957100391 -0.5384300351 0.8755100965
H  0.6036500335 -0.5286400318 -0.9001000524
H  3.1041102409 2.1235599518 0.0054200008
H  2.9245002270 -2.0255701542 -0.0012800001
