16

C  0.7573500276 -1.3001800776 0.8215500712
C  1.6485100985 -0.1860700101 0.2646800280
N  0.5341400504 0.3148100078 -0.5608900785
C  -0.2308700234 1.3899900913 0.1090000123
C  -1.5723301172 0.8029300570 0.3922400475
C  -1.5752000809 -0.5078400373 0.1477400064
C  -0.2368100137 -0.9349000454 -0.2978200316
H  1.1797500849 -2.3075702190 0.7656300664
H  0.4113200307 -1.1190601587 1.8461500406
H  2.4811401367 -0.5652200580 -0.3408600390
H  2.0681700706 0.5040600300 1.0039501190
H  0.2307100147 1.7536902428 1.0342401266
H  -0.3295800388 2.2361702919 -0.5787200332
H  -2.4176599979 1.3758100271 0.7429000139
H  -2.4201703072 -1.1716301441 0.2619100213
H  -0.2474300116 -1.6295200586 -1.1446701288
