15

C  -0.4617300630 1.4414000511 -0.4733500481
O  -1.2753500938 0.5584600568 0.2826500237
C  -1.3308500051 -0.7568500638 -0.2471800148
C  -0.2233900279 -1.5832201242 0.3194100261
C  1.0558900833 -1.2078700066 0.4481000304
C  1.6379901171 0.0254400019 -0.0207800008
C  1.0060700178 1.1383600235 -0.4202400148
H  -0.6136800647 2.4392702579 -0.0468700044
H  -0.8085500598 1.4841201305 -1.5123200417
H  -1.3340201378 -0.7711700201 -1.3425400257
H  -2.2822301388 -1.1856101751 0.0838600099
H  -0.5087000728 -2.5694503784 0.6799600720
H  1.7570900917 -1.9062501192 0.9022900462
H  2.7284703255 0.0209500026 -0.0530400053
H  1.6322700977 1.9617002010 -0.7644800544
