10

O  1.4079400301 -0.2500300109 -0.0741900057
C  0.4779700339 -1.2727801800 -0.0772200078
C  -0.8386700749 -1.0389901400 -0.0831000060
O  -1.3603001833 0.2412900180 -0.0865600109
C  -0.4298700392 1.2643101215 -0.0835100040
C  0.8864700794 1.0306600332 -0.0776300058
H  0.9434000850 -2.2461400032 -0.0742900074
H  -1.6105400324 -1.7931101322 -0.0856800079
H  -0.8957501054 2.2378101349 -0.0864300057
H  1.6590501070 1.7840502262 -0.0750400051
