12

C  1.0230201483 0.0181600004 -0.0979800075
C  2.2223401070 0.0136500010 -0.0461200066
C  3.6550104618 0.0085800011 0.0212900024
C  4.4236903191 -0.7247500420 -1.0453701019
C  4.4308204651 0.7827700377 -1.0206800699
C  5.6227607727 1.4724001884 -0.6183400750
N  6.5886306763 2.0238802433 -0.2898500264
H  -0.0417600013 0.0210200027 -0.1402500123
H  4.0670104027 -0.0318000019 1.0266700983
H  3.8749003410 -1.2139501572 -1.8428602219
H  5.3182001114 -1.2590701580 -0.7427800298
H  3.8629703522 1.2817000151 -1.7996201515
