13

O  1.1234700680 -0.0267800018 -0.5777300596
C  2.2696101665 0.1121700108 -0.1702800095
N  2.9424901009 1.2886601686 0.0815300122
C  4.3057804108 1.3800801039 0.5650000572
C  4.5591101646 2.8662803173 0.6724800467
C  3.2391102314 3.3925602436 0.2105900049
N  2.3552401066 2.5087101460 -0.1126300097
H  2.9031002522 -0.7646500468 0.0439900048
H  4.9763407707 0.8878501058 -0.1465300173
H  4.3836302757 0.8676100969 1.5291001797
H  5.3567304611 3.2132503986 0.0113400007
H  4.7592005730 3.1932501793 1.6956001520
H  3.0572104454 4.4755501747 0.1584900171
