16

C  0.9252900481 -0.0757300109 -0.0753200054
C  2.3899703026 0.1583700180 -0.2091700137
C  3.2516102791 -0.5834100842 -1.1807200909
C  2.7254102230 -1.6260501146 -2.1048700809
N  2.8762502670 0.7823500633 -1.4054400921
C  3.8142702579 1.7977200747 -1.3483300209
O  3.8368501663 2.7801501751 -2.0783300400
H  0.4578100443 0.7702900171 0.4385400414
H  0.7417100072 -0.9756600857 0.5195400715
H  0.4245800376 -0.1939100176 -1.0411901474
H  2.8361103535 0.4962100387 0.7193400264
H  4.2897005081 -0.7553100586 -0.9197900891
H  1.7667001486 -1.3496700525 -2.5545201302
H  2.5940701962 -2.5711002350 -1.5689901114
H  3.4365403652 -1.7956001759 -2.9197101593
H  4.5707001686 1.6437501907 -0.5596799850
