14

N  2.4304101467 -0.2624000013 1.5486201048
C  2.5895900726 0.0290700011 0.1274100095
C  3.0256302357 1.4374500513 -0.0894300118
C  4.1180701256 1.8886201382 -0.6771300435
O  4.1983003616 3.2580103874 -0.7181000710
C  2.9838101864 3.6155202389 -0.0245800018
O  2.1961503029 2.4642403126 0.3469400406
H  1.9613902569 -1.1592301130 1.6524901390
H  1.7988201380 0.4352800548 1.9427001476
H  1.6349201202 -0.1339400113 -0.3860900402
H  3.3143601418 -0.6723400354 -0.3011200130
H  4.9363703728 1.3488600254 -1.1189801693
H  2.3820500374 4.2590703964 -0.6759400368
H  3.2457203865 4.1722803116 0.8830100298
