17

C  1.1402100325 3.0537703037 0.4309100509
C  2.6463601589 3.2396802902 0.3949100077
O  3.2377002239 1.9937400818 0.0279400032
C  4.6019506454 1.9396702051 -0.0430900007
C  5.5032105446 2.9049000740 0.1933500171
C  6.9252405167 2.6762602329 0.0745400041
C  7.8412208557 3.6224002838 0.3165100217
H  0.6381700039 3.9873502254 0.6986000538
H  0.8653400540 2.2833902836 1.1584200859
H  0.7696200013 2.7189102173 -0.5433600545
H  2.9955704212 3.5474302769 1.3876801729
H  2.9001603127 4.0085601807 -0.3437100351
H  4.8877701759 0.9346001148 -0.3368900120
H  5.1908302307 3.9018201828 0.4872500300
H  7.2581605911 1.6846501827 -0.2255400121
H  7.5693106651 4.6281905174 0.6199000478
H  8.8989601135 3.4017703533 0.2142700106
