14

C  2.0588402748 -1.2297701836 -0.4909700453
C  3.0198302269 -0.4797300398 0.0599500053
C  3.3054802418 0.8677100539 -0.3699700236
C  4.2684502602 1.6187601089 0.1871300191
C  4.5928606987 3.0230202675 -0.2419000119
C  4.4257802963 3.9627001286 0.8772701025
N  4.3054003716 4.7135601044 1.7546701431
H  1.8765201569 -2.2390000820 -0.1343200058
H  1.4313701391 -0.8682300448 -1.2993900776
H  3.6146502495 -0.8971000314 0.8701900244
H  2.6988401413 1.2702000141 -1.1795300245
H  4.8747901917 1.2116600275 0.9952200651
H  3.9607703686 3.3346402645 -1.0812801123
H  5.6297802925 3.0508301258 -0.5953400731
