21

C  1.3340700865 -1.2439000607 -0.0080600008
C  0.7709000707 0.1708100140 -0.0675600097
C  1.2319601774 1.0264201164 1.1227700710
C  0.8154600859 2.4997401237 0.9581500292
C  -0.6910900474 2.7257101536 0.9227000475
O  0.6749899983 0.4548100233 2.3120102882
C  1.3408300877 0.8519501090 3.5028002262
H  0.9965200424 -1.8205201626 -0.8756800890
H  1.0017100573 -1.7690200806 0.8936200738
H  2.4290101528 -1.2307500839 -0.0150200017
H  -0.3220200241 0.0916200057 -0.0778500065
H  1.0836100578 0.6371700168 -1.0081900358
H  2.3276901245 0.9768400192 1.1763401031
H  1.2606900930 2.9052600861 0.0412900038
H  1.2235900164 3.0882902145 1.7877001762
H  -1.1386201382 2.2832100391 0.0293600019
H  -0.9063800573 3.7992203236 0.9011700749
H  -1.1810101271 2.3026001453 1.8040101528
H  0.9171500206 0.2836500108 4.3351006508
H  1.1852301359 1.9148300886 3.7025401592
H  2.4109401703 0.6293800473 3.4426901340
