17

C  1.0714399815 -0.0647300035 0.2939600348
C  2.4018402100 0.1860500127 -0.3341400027
C  3.1455602646 1.2902100086 -0.1999800056
C  2.7937302589 2.5361101627 0.5468000770
C  3.5339601040 3.5505702496 -0.2859600186
C  4.7579207420 2.7725601196 -0.7199800611
O  4.3342499733 1.4141701460 -0.9112000465
H  1.0307401419 -1.0875300169 0.6829800606
H  0.2801800370 0.0459100008 -0.4538900256
H  0.8621300459 0.6126300693 1.1266800165
H  2.7833201885 -0.6110400558 -0.9695200920
H  3.1953501701 2.4925203323 1.5647901297
H  1.7227400541 2.7491602898 0.5855000615
H  2.9330103397 3.8218302727 -1.1631300449
H  3.7799701691 4.4678301811 0.2549300194
H  5.1769704819 3.1560301781 -1.6554801464
H  5.5401606560 2.7878901958 0.0484900028
