16

C  1.1415801048 0.1069400087 0.1298000067
C  2.6334102154 -0.0958600044 -0.1241600066
N  2.8389503956 -0.7358600497 -1.4225801229
C  3.3634102345 1.2222601175 -0.1207000092
C  3.7309503555 1.8964701891 1.1789101362
N  4.7536902428 1.2816801071 0.3442800045
H  0.9748901129 0.5715500712 1.1087000370
H  0.6054300070 -0.8485000730 0.1171600148
H  0.6889700890 0.7625800371 -0.6237200499
H  3.0374600887 -0.7537900805 0.6546500325
H  2.3599700928 -0.2118200213 -2.1502902508
H  2.4159102440 -1.6611300707 -1.4108500481
H  3.1048302650 1.8589900732 -0.9596101046
H  3.5179803371 1.3888500929 2.1115000248
H  3.7259202003 2.9782102108 1.2235001326
H  5.2732300758 1.9717200994 -0.1996900141
