18

N  0.7704600692 0.0856500044 0.3749200106
C  2.2039499283 -0.1679700166 0.2537700236
C  2.9434301853 1.1306200027 -0.0709700063
C  4.4636907578 0.9569301009 -0.0728299990
C  4.9564704895 0.1629400104 -1.2410300970
C  6.1962604523 -0.6864800453 -1.1236600876
O  4.8819203377 -1.2584501505 -1.0867700577
H  0.2950600386 -0.7953700423 0.5703400373
H  0.4068800211 0.4082500339 -0.5210000277
H  2.3633902073 -0.9137900472 -0.5309100747
H  2.5710203648 -0.5864500403 1.1968901157
H  2.6883602142 1.8873901367 0.6823600531
H  2.6099901199 1.5191000700 -1.0407900810
H  4.7881002426 0.5077200532 0.8747600913
H  4.9271202087 1.9485601187 -0.1228100136
H  4.7114305496 0.5934800506 -2.2020101547
H  6.7593808174 -0.6759300232 -0.1991800070
H  6.7889504433 -0.8590400815 -2.0132801533
