17

C  0.9498400688 0.0051900004 0.0178100020
C  2.4701902866 0.0094400002 0.0176200029
C  3.0273902416 1.4328200817 0.0000000000
C  4.4713902473 1.4328200817 0.0000000000
C  5.6615505219 1.4328200817 0.0000000000
C  7.0675506592 1.4328200817 0.0000000000
C  7.7694306374 2.5708303452 0.0000300000
H  0.5736500025 -1.0226200819 0.0305000022
H  0.5555600524 0.5000000596 -0.8758800626
H  0.5557300448 0.5218600631 0.8991200924
H  2.8312201500 -0.5466700792 -0.8560800552
H  2.8313803673 -0.5249400139 0.9047200680
H  2.6557402611 1.9826101065 0.8728100657
H  2.6557199955 1.9608401060 -0.8861400485
H  7.5817909241 0.4764500260 -0.0000200000
H  7.2829704285 3.5415701866 0.0000500000
H  8.8540906906 2.5517802238 0.0000300000
