11

C  1.0418500900 0.0222300012 0.0055400003
C  2.5174300671 -0.0747300014 0.0017100001
N  3.2522602081 -1.1338201761 0.0017100001
C  4.5456104279 -0.6257100105 -0.0014400001
O  5.5381002426 -1.3370500803 -0.0026900002
N  4.6108603477 0.7626300454 -0.0029700003
C  3.3830404282 1.1286801100 -0.0010200001
H  0.5988500118 -0.9769700766 -0.0016500001
H  0.7089300752 0.5690000653 -0.8804500699
H  0.7129500508 0.5544300675 0.9018400908
H  2.9444401264 2.1345801353 -0.0011900001
