17

N  1.0268701315 0.0419100001 0.1817000061
C  2.4623303413 -0.0839100108 -0.0334400013
C  2.8292303085 -1.5082900524 -0.4827800393
C  2.6715800762 -1.4929401875 -2.0102200508
C  3.0789201260 -0.1002300009 -2.3957500458
N  2.1157500744 0.9877200723 -2.3922500610
C  2.9195401669 0.7788600922 -1.1892101765
H  0.7704200745 1.0268400908 0.1804300100
H  0.7717200518 -0.3438900411 1.0862200260
H  2.9968302250 0.1857400239 0.8833300471
H  2.2320501804 -2.2918400764 -0.0060100006
H  3.8814203739 -1.6990101337 -0.2350600213
H  3.3108100891 -2.2479801178 -2.4783203602
H  1.6332601309 -1.6918601990 -2.3001601696
H  3.9671304226 -0.0215300005 -3.0049402714
H  2.4601602554 1.7833400965 -2.9281001091
H  3.6933002472 1.4942201376 -0.9496600628
