13

C  0.8099600673 -0.0652700067 -0.1310300082
N  2.2374203205 -0.0325300023 0.1446700096
N  2.9058103561 -1.2904100418 0.2202200145
C  3.0149402618 1.1312100887 0.1271900088
O  4.2358403206 1.1224100590 0.2643600404
C  2.3473100662 2.4015901089 -0.0703700110
C  1.8047701120 3.4614100456 -0.2350600213
H  0.3051600158 0.7355700731 0.4163000286
H  0.3861100376 -1.0259200335 0.1764800102
H  0.6570100188 0.0820000097 -1.2042001486
H  3.2168004513 -1.3998500109 1.1902000904
H  3.7874703407 -1.1857000589 -0.2976800203
H  1.3355801105 4.4067401886 -0.3804200292
