16

C  2.8593304157 -1.1138000488 -0.5147000551
N  2.3404600620 0.0879100040 0.1258200109
C  3.3390402794 1.1671500206 0.1699600071
C  3.4563801289 2.1044702530 -0.9969900846
C  2.8686301708 2.5982902050 0.2973600328
C  3.6341204643 3.5082101822 1.0990201235
C  4.2718000412 4.2727699280 1.7706900835
H  2.0797600746 -1.8812201023 -0.5406100750
H  3.7168104649 -1.5181301832 0.0329100005
H  3.1606202126 -0.9116300344 -1.5475801229
H  2.0345902443 -0.1446200013 1.0713200569
H  4.2635402679 0.9112200737 0.6857800484
H  2.7815103531 1.9712802172 -1.8345700502
H  4.4489502907 2.4339702129 -1.2807700634
H  1.7951002121 2.7640900612 0.3056700230
H  4.8360900879 4.9523301125 2.3655102253
