13

C  1.0366901159 0.1340000033 0.0916100070
C  2.5180602074 -0.0718000010 -0.1741900146
C  3.2680001259 1.2191501856 -0.0945000052
C  3.8648800850 1.7000900507 1.2001299858
O  4.6645703316 1.0718001127 0.1873500198
H  0.4996700287 -0.8169400692 0.0191600025
H  0.6011500359 0.8296900392 -0.6329600811
H  0.8717600703 0.5461800098 1.0922201872
H  2.6522703171 -0.5012700558 -1.1739000082
H  2.9162802696 -0.7998700738 0.5437300205
H  2.9794201851 1.9402900934 -0.8474500775
H  3.6757702827 1.1401600838 2.1072201729
H  3.9902002811 2.7662203312 1.3436201811
