10

O  1.0247501135 0.0113200005 -0.1422800124
C  2.4446003437 -0.0345100015 0.0357700028
C  3.1994602680 -0.7449600697 -1.0482200384
C  3.2492001057 0.7529600263 -0.9550200701
H  0.6200600863 0.6816300750 0.4350100160
H  2.8280203342 -0.1239300072 1.0471700430
H  2.6289803982 -1.1871001720 -1.8565701246
H  4.0815801620 -1.3055500984 -0.7650100589
H  4.1714205742 1.2093501091 -0.6133700609
H  2.7211902142 1.3227801323 -1.7102000713
