14

C  1.0278501511 0.0763400048 0.0387700014
C  2.5059499741 -0.0289700013 -0.0302200019
C  3.2777702808 -1.1208300591 -0.0399700031
C  4.7371406555 -0.7547200322 -0.1224800125
C  4.6366906166 0.7619400620 -0.1604400128
O  5.5589504242 1.5558501482 -0.2307000160
N  3.2916302681 1.0799300671 -0.1001300067
H  0.5579300523 -0.9124300480 0.0497000031
H  0.6404200792 0.6231600046 -0.8268001080
H  0.7228200436 0.6053800583 0.9472200871
H  2.9206001759 -2.1392402649 0.0053100004
H  5.2838001251 -1.0781301260 0.7659200430
H  5.1943707466 -1.1296700239 -1.0406000614
H  2.9655902386 2.0360801220 -0.1113600135
