16

C  1.8659001589 -0.9026400447 0.6385400891
C  3.2441504002 -0.3097700179 0.3738100529
C  3.1829602718 1.1955699921 0.0724600032
O  2.5984899998 1.8857001066 1.1824200153
C  4.5600900650 1.8059401512 -0.2069500238
C  5.1258506775 1.3281201124 -1.4721400738
N  5.5760903358 0.9394800663 -2.4680802822
H  1.9466302395 -1.9807301760 0.8099000454
H  1.2007700205 -0.7436500788 -0.2161300182
H  1.4027001858 -0.4565500319 1.5240801573
H  3.7010302544 -0.8471400738 -0.4645400345
H  3.8684000969 -0.4875800312 1.2579400539
H  2.5237300396 1.3679001331 -0.7869501114
H  3.0082402229 1.5610401630 2.0033600330
H  5.2419600487 1.5880601406 0.6237900257
H  4.4714703560 2.8989801407 -0.2366300225
