15

C  1.7187302113 -0.9252900481 1.1973201036
N  2.7327401638 -0.3456900418 0.3425000310
C  3.2358102798 0.9242600799 0.5000600219
C  4.3274302483 1.4291701317 -0.0865000114
C  4.7325305939 2.8255603313 0.1855300218
N  5.8211803436 3.2287201881 -0.5238600373
O  4.1618905067 3.5700902939 0.9680900574
H  1.3402601480 -1.8480001688 0.7476601005
H  0.8750700951 -0.2400500178 1.3278400898
H  2.1375300884 -1.1655900478 2.1792101860
H  3.3496901989 -1.0096000433 -0.1180700064
H  2.6416001320 1.5440601110 1.1733200550
H  4.9249005318 0.8381900787 -0.7653600574
H  6.3041405678 2.6507003307 -1.1946301460
H  6.1343207359 4.1805305481 -0.3871000111
