17

C  2.2477803230 -0.7343700528 -1.1359001398
O  1.8888201714 0.5265400410 -0.5870000720
C  3.0345501900 1.2735700607 -0.1134200096
C  3.5244202614 2.3952300549 -0.9982300401
N  2.9056901932 2.6191802025 -2.3156101704
C  2.7500302792 2.7087602615 0.2593600154
N  3.4215302467 3.3246202469 1.4120701551
H  1.3422300816 -1.2203700542 -1.5082601309
H  2.6962800026 -1.3676401377 -0.3647700250
H  2.9458303452 -0.6038500667 -1.9681501389
H  3.7720501423 0.7464100718 0.4841400385
H  4.5916299820 2.6044101715 -0.9770100713
H  1.9208002090 2.3500802517 -2.2687702179
H  3.3179202080 1.9943602085 -3.0065002441
H  1.7268202305 3.0515203476 0.1239200085
H  4.3717403412 2.9785401821 1.5282400846
H  2.9237401485 3.0968701839 2.2718400955
