15

C  0.9463800788 0.0033100003 -0.1961800158
C  2.2693500519 0.0083400002 0.0274800025
C  2.9831101894 1.2742201090 0.1435900033
C  4.2941203117 1.2805200815 0.4315500259
C  5.0967803001 0.0201500002 0.6424000263
C  4.3052000999 -1.2460500002 0.4319900274
C  2.9935002327 -1.2504000664 0.1437500119
H  0.3855200410 -0.9222900271 -0.2869300246
H  0.3778900206 0.9232500792 -0.2866800129
H  2.4451501369 2.2054700851 -0.0024300001
H  4.8216204643 2.2252101898 0.5209500194
H  5.9471602440 0.0239900015 -0.0493300036
H  5.4985804558 0.0222400017 1.6625801325
H  4.8397002220 -2.1864402294 0.5215300322
H  2.4631903172 -2.1869003773 -0.0018900002
