15

O  0.5873800516 0.1035700068 0.9045600295
C  1.8734902143 -0.3407500386 0.4840900600
C  2.7547800541 0.8711000681 0.2356800139
C  4.1382303238 0.4635800421 -0.2209900171
O  4.4692301750 -0.7120000124 -0.3705900311
C  5.1527800560 1.5179500580 -0.5068100095
C  4.9489903450 2.8345201015 -0.3859400153
H  0.0501200072 -0.6945600510 1.0520401001
H  1.7544901371 -0.9364600778 -0.4271000326
H  2.2935700417 -0.9801000953 1.2677700520
H  2.8336601257 1.4566200972 1.1586201191
H  2.2924900055 1.5056301355 -0.5289400220
H  6.1147904396 1.1357500553 -0.8356500268
H  4.0072202682 3.2639100552 -0.0612600073
H  5.7497506142 3.5315301418 -0.6170300841
