14

C  0.8539600968 -1.1002501249 0.5495100617
C  -0.4041300118 -1.4986300468 -0.1929300129
C  -1.4894400835 -0.4546500444 -0.2617000043
N  -1.4251301289 0.8194100857 -0.0127100013
O  -0.1838000119 1.2745500803 0.4725300074
C  0.8809200525 1.0506300926 -0.4536700547
O  1.6232101917 -0.1363800168 -0.1663000137
H  1.4934401512 -1.9818801880 0.6655900478
H  0.6409200430 -0.7342300415 1.5609400272
H  -0.8477500677 -2.3787403107 0.2862400115
H  -0.1680300236 -1.7725601196 -1.2278101444
H  -2.4625902176 -0.8211000562 -0.6337200403
H  1.5721801519 1.8964102268 -0.3852400184
H  0.5166100264 1.0115300417 -1.4880400896
