11

C  1.0006101131 -0.0587700047 -0.0007800001
C  2.5200002193 0.0000000000 0.0000000000
O  3.0023701191 -0.6785200834 -1.1559300423
C  3.0020201206 1.3611700535 0.0000000000
C  3.3993003368 2.4830701351 0.0000000000
H  0.5780000091 0.4309600294 0.8837200403
H  0.6572200060 -1.0996601582 -0.0207400005
H  0.5832600594 0.4259100258 -0.8923400640
H  2.8995001316 -0.5394200087 0.8738800883
H  2.7968101501 -0.1140100136 -1.9204400778
H  3.7607603073 3.4857201576 0.0016400001
