11

C  2.3409702778 -0.0461900048 0.5842400789
N  1.9167901278 0.3801000416 -0.7484200597
C  2.8789501190 1.3302201033 -0.7408500314
C  2.9661900997 2.6810102463 -0.8298100829
O  3.6363003254 3.1168501377 0.2924900055
N  3.8002803326 2.0335001945 1.1879501343
C  3.3975503445 0.9804400802 0.4828500152
H  2.6885802746 -1.0837601423 0.5914400220
H  1.5974200964 0.1096900105 1.3706301451
H  2.0439801216 -0.3785300255 -1.4178900719
H  2.5275201797 3.4570403099 -1.4369400740
