17

C  1.0000001192 0.0000000000 0.0000000000
C  2.4440002441 0.0000000000 0.0000000000
C  3.6341602802 0.0000000000 0.0000000000
C  5.0781602859 0.0000000000 0.0000000000
N  5.5790104866 -0.7611400485 -1.1563601494
C  5.6438603401 1.4471701384 -0.0217500031
N  7.0959706306 1.4882401228 -0.2783700228
H  0.6060200334 1.0208801031 0.0114100007
H  0.6059300303 -0.5203300118 0.8783600926
H  0.6060200334 -0.5005100369 -0.8898401260
H  5.4502000809 -0.4984400272 0.9031000733
H  5.2239503860 -0.3171900213 -2.0036001205
H  5.1540403366 -1.6876300573 -1.1335101128
H  5.4320101738 1.9512001276 0.9287701249
H  5.1525907516 2.0336201191 -0.8088001013
H  7.2595405579 0.8432101011 -1.0605000257
H  7.5715007782 1.0331600904 0.5018900633
