17

C  1.0869400501 0.0079800002 -0.0287200026
C  2.5831801891 0.0770200044 0.0075400006
C  3.4660401344 -0.6340900660 -1.0905300379
C  4.5414505005 -0.3249900341 0.0101400008
C  3.4230802059 -0.8296100497 0.9893401265
C  4.5115504265 1.2049599886 0.1533100158
O  3.0928301811 1.4314800501 0.1460200101
H  0.6518800855 0.4356700182 0.8803600669
H  0.7395700812 -1.0272400379 -0.1096500084
H  0.6891100407 0.5614300370 -0.8855000734
H  3.5794503689 -0.0990600064 -2.0379700661
H  3.2556102276 -1.6899300814 -1.2935601473
H  5.4944205284 -0.8495700955 -0.0196700022
H  3.2086803913 -1.9039402008 0.9827600718
H  3.4957001209 -0.4813100398 2.0236802101
H  4.9394307137 1.5471101999 1.0997300148
H  4.9759802818 1.7162002325 -0.6944500804
