19

N  0.9322900772 2.5250601768 -1.1118900776
C  2.1638202667 2.7058804035 -0.3450600207
C  3.2667901516 1.7954201698 -0.8893200159
C  4.5690402985 1.8943401575 -0.0741000026
N  5.5535202026 0.9361600876 -0.5821300745
C  5.1868700981 3.2627103329 -0.1288399994
C  5.4019904137 4.0410404205 0.9409700632
H  0.2068900168 3.1325404644 -0.7312700748
H  0.5919800401 1.5712001324 -0.9992600679
H  1.9681200981 2.4798302650 0.7091200352
H  2.4610202312 3.7570102215 -0.4132500291
H  3.4587202072 2.0428001881 -1.9423700571
H  2.9126603603 0.7551800609 -0.8711000681
H  4.3534007072 1.6237500906 0.9672500491
H  5.6894807816 1.0900601149 -1.5805301666
H  5.1770200729 -0.0068500005 -0.4986700416
H  5.4737105370 3.6378703117 -1.1086001396
H  5.1477503777 3.7151803970 1.9446802139
H  5.8582105637 5.0202307701 0.8307901025
