14

O  0.9221200943 -0.0084700007 0.1095000058
C  2.3548600674 0.0060100006 0.0153300017
C  3.0712702274 1.0545901060 0.8950700164
C  4.1376705170 -0.0131200012 1.2348301411
C  3.0961403847 -1.0817500353 0.8238900900
C  5.3376603127 0.0255500022 0.4206200242
N  6.2885503769 0.0509500019 -0.2417500168
H  0.6352300644 -0.7462500334 -0.4567700326
H  2.6723601818 0.0501800068 -1.0342600346
H  2.4855000973 1.3808901310 1.7631900311
H  3.4238202572 1.9450501204 0.3653200269
H  4.3799004555 -0.0457300022 2.3039400578
H  3.4688000679 -1.9264900684 0.2362500131
H  2.5185501575 -1.4784600735 1.6678100824
