20

C  1.1195900440 0.3962800205 0.9491900802
N  2.5740902424 0.4328500330 0.8945300579
C  3.0364203453 1.4755301476 -0.0160700008
C  4.5335302353 1.4574700594 0.0064200005
C  5.3157005310 0.6369500756 -0.9921700358
C  5.3128805161 2.1406502724 -1.0913801193
C  6.5378103256 2.9213204384 -0.7549900413
H  0.8018800020 -0.3679400086 1.6642800570
H  0.6882800460 0.1476300061 -0.0251200031
H  0.7111500502 1.3534101248 1.2882200480
H  2.9236800671 -0.4675900340 0.5690300465
H  2.6901602745 2.4599800110 0.3190600276
H  2.6562302113 1.3040100336 -1.0304601192
H  4.9220304489 1.5391302109 1.0168600082
H  4.7732906342 0.0809000060 -1.7484802008
H  6.2127804756 0.1394100040 -0.6408600807
H  4.7635102272 2.5924601555 -1.9099501371
H  7.1179203987 2.4524703026 0.0476100035
H  6.2632102966 3.9297201633 -0.4309000373
H  7.1832504272 3.0085303783 -1.6341401339
