13

C  1.0015300512 -0.0398800038 -0.0070900004
C  2.4696502686 0.1145700142 0.0009500001
C  3.3109104633 1.2091801167 0.0044500004
C  4.6161203384 0.6802000403 0.0120400004
O  5.7825107574 1.3397600651 0.0177300014
C  4.5083203316 -0.6850300431 0.0127000008
O  3.1949801445 -1.0418801308 0.0058700005
H  0.5041500330 0.9349100590 0.0013200002
H  0.6704600453 -0.5991000533 0.8734300137
H  0.6784500480 -0.5800200701 -0.9022300839
H  3.0053200722 2.2447102070 0.0017700001
H  5.6234707832 2.2986502647 0.0159300007
H  5.2201504707 -1.4969401360 0.0173400007
