15

C  0.2330700159 0.7772000432 -0.2092500180
C  -0.8587800860 -0.2401800156 -0.0669300035
C  0.5820900798 -0.6639600396 0.0580400042
N  1.1011800766 -1.0131000280 1.3897801638
C  0.9714000821 -2.4474701881 1.6280101538
C  2.3061001301 -1.8309901953 1.3084400892
H  0.4384300113 1.1722199917 -1.1967900991
H  0.3663700223 1.4935101271 0.5932700634
H  -1.3971201181 -0.5392200351 -0.9578900933
H  -1.4640201330 -0.2117800266 0.8316600323
H  0.9874000549 -1.2110500336 -0.7922400832
H  0.4837700427 -3.0572202206 0.8774200678
H  0.7733100653 -2.7328400612 2.6537103653
H  3.0131402016 -1.7026801109 2.1188900471
H  2.7521402836 -2.0215601921 0.3410400152
