16

O  2.8867802620 -0.8211100698 -1.1830000877
C  2.3344101906 -0.1797600240 -0.0326300040
C  2.7728502750 1.2894099951 -0.0024200000
N  4.2405104637 1.3721600771 0.1138700023
C  4.7204704285 2.7469401360 -0.0721400008
C  4.3495802879 3.5996103287 1.1230000257
O  3.7516603470 4.6682505608 1.0373201370
H  2.6128602028 -1.7535101175 -1.1392500401
H  2.6747303009 -0.7105600238 0.8631200194
H  1.2433300018 -0.2463400215 -0.0910600051
H  2.2921900749 1.7910301685 0.8436200619
H  2.4486002922 1.7700401545 -0.9329800606
H  4.6183700562 0.7845800519 -0.6366000772
H  4.3329701424 3.1967902184 -0.9915100932
H  5.8134002686 2.7396800518 -0.1319000125
H  4.6914105415 3.2203102112 2.1020700932
