13

C  0.9228500724 0.0022400001 -0.1292700171
C  2.2536301613 0.0073900004 0.0335500017
C  2.9899902344 1.2595800161 0.1232600138
C  4.3199801445 1.2002700567 0.2884700298
O  5.0361804962 0.0179200005 0.3786200285
C  4.3291006088 -1.1697700024 0.2902200222
C  2.9992301464 -1.2392001152 0.1250500083
H  0.3592200279 -0.9230500460 -0.1977700144
H  0.3524500430 0.9233600497 -0.1991000175
H  2.4730300903 2.2091500759 0.0578200035
H  4.9713702202 2.0585901737 0.3683800399
H  4.9865708351 -2.0229101181 0.3713100255
H  2.4894402027 -2.1928100586 0.0609200038
