12

N  1.1679100990 -0.0731900111 -0.6120100617
C  2.3838701248 -0.0574000068 0.0068000006
O  2.8514900208 -1.0820599794 0.4880700409
C  3.1185002327 1.2505400181 0.0000000000
C  2.4512100220 2.4146301746 0.0681300089
C  4.5245003700 1.2505400181 0.0000000000
C  5.7146601677 1.2505400181 0.0000000000
H  0.8265500665 0.6913900375 -1.1740200520
H  0.7080700397 -0.9711300731 -0.6853900552
H  1.3704900742 2.4638302326 0.1357900202
H  2.9825003147 3.3619501591 0.0948900133
H  6.7796607018 1.2376101017 0.0050400002
