12

N  0.9841101170 -0.0069700009 -0.0750600025
C  2.3349103928 0.0094100004 -0.0357300043
C  3.0755002499 1.1685601473 -0.0304500014
S  4.7620906830 0.8575700521 0.0376800001
C  4.5037102699 -0.8371101022 0.0502100065
C  3.1660103798 -1.1425400972 0.0027400001
O  2.7485301495 -2.4211602211 -0.0189800020
H  0.4593600333 0.8572300673 0.0386400037
H  0.4424800277 -0.8192000389 0.2012300193
H  2.7226400375 2.1895301342 -0.0572200045
H  5.3400902748 -1.5204900503 0.0811100081
H  1.7909400463 -2.4340202808 -0.1729600281
