14

O  2.7583203316 -0.7431400418 1.1859501600
C  2.3841102123 -0.0676700100 -0.0210800022
C  2.9540302753 1.3612000942 -0.0166800003
O  2.5958302021 1.9982901812 1.2095701694
C  4.4529900551 1.3842301369 -0.1124400124
C  5.1458501816 1.9740102291 -1.0960201025
H  2.4045701027 -1.6474400759 1.1191900969
H  1.2901400328 -0.0300100036 -0.0396100022
H  2.7417802811 -0.6416600943 -0.8814400434
H  2.5056900978 1.9338600636 -0.8364400864
H  2.7295401096 1.3109000921 1.8918300867
H  4.9959902763 0.8844200969 0.6867200136
H  4.6525702477 2.4968702793 -1.9093002081
H  6.2313504219 1.9571101665 -1.0948200226
