18

C  1.6762901545 -0.3778300285 -1.1782901287
C  2.3179001808 0.1693000197 -0.1373500079
C  2.9613602161 1.5200700760 -0.1479000151
N  4.4032306671 1.3518000841 -0.0192000009
C  5.0789303780 2.6451802254 -0.0028100002
C  6.5587301254 2.4230103493 0.0389900021
C  7.4227204323 2.8840501308 -0.8751700521
H  1.2337400913 -1.3653401136 -1.0994400978
H  1.5885000229 0.1377000064 -2.1303000450
H  2.3861701488 -0.3891900182 0.7932500243
H  2.5643200874 2.0989301205 0.6933000684
H  2.7153503895 2.0591402054 -1.0702201128
H  4.7365603447 0.8274200559 -0.8278900385
H  4.7868204117 3.2129402161 0.8899800777
H  4.8031902313 3.2396602631 -0.8842000365
H  6.9363703728 1.8476902246 0.8811200857
H  7.0952706337 3.4637401104 -1.7310700417
H  8.4849605560 2.6827402115 -0.7821601033
