15

C  1.1432101727 0.6491800547 -1.7597701550
C  1.5519300699 1.0419200659 -0.5400300026
C  0.4520700574 1.2354600430 0.4589500129
O  0.6634200811 1.5264000893 1.6304601431
C  2.9643001556 1.2239501476 -0.1577600092
C  3.8940703869 2.0262601376 -1.0356100798
C  3.4353802204 2.5902302265 0.2753200233
H  1.8673602343 0.4574100375 -2.5459501743
H  0.0995800048 0.5026100278 -2.0180501938
H  -0.5752900243 1.0936801434 0.0822300091
H  3.3867204189 0.3757900298 0.3736400306
H  3.5131301880 2.4902100563 -1.9381301403
H  4.9244303703 1.6972200871 -1.1122200489
H  4.1465501785 2.6383101940 1.0923401117
H  2.7331900597 3.4165501595 0.2605500221
