10

O  2.6784801483 -1.0769100189 0.0551600046
C  2.1782801151 0.0461400039 0.0083000008
C  2.8870003223 1.3002500534 -0.0030500004
N  2.3284702301 2.4971003532 -0.0538000017
C  3.4001603127 3.3554501534 -0.0426000021
C  4.5706105232 2.6421701908 0.0147300009
O  4.2564601898 1.3173800707 0.0407700054
H  1.0812400579 0.1530400068 -0.0300900023
H  3.2727100849 4.4287605286 -0.0760500059
H  5.6213703156 2.8906002045 0.0419200063
