16

C  2.5460801125 -0.2181700170 -1.6181801558
C  2.3817203045 0.2438800186 -0.1767600179
C  2.9294700623 1.6360402107 0.0685100034
C  2.1118602753 2.6417202950 0.4301600158
C  4.4198303223 1.8571701050 -0.1078800038
C  5.2146506310 1.0290601254 0.8133400083
N  5.8548007011 0.3727100194 1.5267000198
H  2.0651702881 -1.1920000315 -1.7568200827
H  3.6013503075 -0.3303900361 -1.8863302469
H  2.0865800381 0.4889900386 -2.3165700436
H  2.8698303699 -0.4707400501 0.4958800375
H  1.3136200905 0.2081600130 0.0731600076
H  1.0434600115 2.4889299870 0.5586100817
H  2.4811401367 3.6469502449 0.6131600738
H  4.6734704971 2.9113399982 0.0594000034
H  4.7015905380 1.6400301456 -1.1441701651
