16

C  0.8223100305 0.1318800002 -0.5771000385
C  2.1959500313 -0.0719200075 -0.0071200002
C  3.1573703289 -0.9448800683 -0.7918000817
O  3.2287101746 0.4836600423 -0.8445600271
C  2.4081101418 0.1694300175 1.4924401045
C  1.3223400116 0.5081300139 2.4857401848
N  1.8893500566 -0.8304500580 2.4364700317
H  0.8071300387 0.0078900000 -1.6653401852
H  0.4588500261 1.1404300928 -0.3537000120
H  0.1209700108 -0.5939500332 -0.1505500078
H  2.7958202362 -1.4655101299 -1.6698000431
H  3.9327702522 -1.4702000618 -0.2480500191
H  3.3988602161 0.5503300428 1.7434701920
H  0.3010300398 0.6044300199 2.1440901756
H  1.5809800625 1.1182100773 3.3418602943
H  2.5552203655 -0.9777600169 3.1971502304
