15

N  1.1686601639 -0.0610600039 -0.7930900455
C  2.3196203709 0.1044600084 -0.2363400161
N  2.9627203941 1.2871301174 0.0027400001
C  4.2760300636 1.3649901152 0.6453600526
C  4.5775804520 2.8806202412 0.6940100789
C  3.3699903488 3.5050504208 0.0571100041
C  2.5093502998 2.5498201847 -0.3043000400
H  0.9490000606 -1.0607399940 -0.8354000449
H  2.8956501484 -0.7737500668 0.1058000103
H  5.0337004662 0.8343200684 0.0580200031
H  4.2461404800 0.9397600889 1.6547701359
H  5.4865202904 3.1191000938 0.1328800023
H  4.7007799149 3.2242801189 1.7258100510
H  3.2226603031 4.5645699501 -0.0855500028
H  1.5466901064 2.6652200222 -0.7867500782
