13

N  1.0900601149 -0.2610100210 0.0492900051
C  2.4576799870 -0.2918000221 0.1072200090
N  3.1223104000 -1.3972301483 0.0205000024
C  3.2064802647 1.0321100950 0.3140000403
O  2.5809702873 1.9749801159 0.7837400436
C  4.6317901611 1.0904601812 -0.0960600078
C  5.3387703896 2.2193403244 0.0403800011
H  0.7050900459 0.6152100563 0.4056300223
H  0.6151000857 -1.0698801279 0.4285400212
H  2.4633502960 -2.1648502350 -0.1356000155
H  5.0701904297 0.1887700111 -0.5069000721
H  4.8973307610 3.1217501163 0.4543400109
H  6.3798804283 2.2604501247 -0.2607100308
