20

C  0.4650800228 -0.4968400300 -0.7085000873
C  1.9135301113 -0.5587599874 -0.2500500083
C  2.5687000751 0.8224101067 -0.2770800292
C  4.0339503288 0.7469700575 0.1619800031
N  4.6235804558 2.0919001102 0.1644200087
C  6.0800404549 2.0799801350 0.0709100068
C  5.2258005142 2.4734601974 -1.1084700823
H  0.0147800008 -1.4939701557 -0.6769900918
H  0.3947000206 -0.1249200031 -1.7355800867
H  -0.1233500093 0.1626900136 -0.0626600012
H  2.4662101269 -1.2467800379 -0.9002500772
H  1.9527401924 -0.9692900777 0.7654900551
H  2.0162801743 1.5020900965 0.3836600184
H  2.5049901009 1.2350300550 -1.2916901112
H  4.5760502815 0.0422100052 -0.4830900133
H  4.0865802765 0.3473900259 1.1817300320
H  6.5939602852 1.1281400919 0.0425700024
H  6.5920705795 2.8657703400 0.6107100844
H  5.1598205566 3.5251402855 -1.3605101109
H  5.1472907066 1.7925301790 -1.9470100403
