14

C  1.0141500235 -0.2049000114 -0.1070000082
C  2.5207002163 -0.0151400007 0.0151800010
C  3.2382802963 -0.7761800885 -1.0124700069
N  3.7972202301 -1.3697501421 -1.8380401134
C  2.8614201546 1.4615700245 -0.0530500039
C  2.9549701214 2.1329102516 -1.4025801420
O  2.9952201843 2.1208503246 0.9816200733
H  0.4841700494 0.3767500222 0.6553200483
H  0.7403800488 -1.2583701611 0.0189600028
H  0.6414900422 0.1183400080 -1.0857601166
H  2.8432402611 -0.3757500350 0.9999900460
H  2.0636200905 1.9147901535 -1.9953001738
H  3.8534402847 1.7993301153 -1.9267501831
H  3.0169501305 3.2165203094 -1.2644001245
