19

C  0.9589900374 1.7298400402 1.2849301100
C  2.4446501732 1.5709400177 1.2450500727
C  3.1380901337 1.3465101719 0.1189300045
C  4.6150202751 1.1901600361 0.0926900059
C  5.4762401581 2.2757601738 0.7870500684
C  6.4520702362 1.1433601379 1.1750401258
C  5.2575402260 0.1703100055 1.0669400692
H  0.7005200386 2.7126500607 1.6907601357
H  0.5200000405 0.9638900757 1.9314701557
H  0.5054200292 1.6400301456 0.2927400470
H  2.9523303509 1.6484001875 2.2033600807
H  2.6225302219 1.2703200579 -0.8354000449
H  4.9492001534 1.0180300474 -0.9416300654
H  5.0215001106 2.7691602707 1.6535100937
H  5.8912906647 3.0427901745 0.1270400137
H  7.2366003990 0.9629800320 0.4311500490
H  6.9095306396 1.2272300720 2.1638402939
H  5.4913506508 -0.8087300658 0.6390800476
H  4.7357807159 0.0201900005 2.0188701153
