16

C  2.4926002026 -0.4239500165 -1.7061901093
N  2.2464201450 0.2077000141 -0.4158400297
C  3.2511103153 1.2555100918 -0.1770800054
C  2.6890301704 2.6075601578 -0.7031400204
C  2.9943001270 3.2982602119 0.6495700479
C  3.1766602993 1.8877000809 1.2439301014
O  3.2399702072 1.4489101171 2.3723602295
H  1.7224401236 -1.1781700850 -1.8948200941
H  3.4663901329 -0.9241400957 -1.7277401686
H  2.4472601414 0.3036400378 -2.5230600834
H  2.2534902096 -0.5108700395 0.3119600117
H  4.2802500725 1.0194901228 -0.4692100286
H  1.6199401617 2.6176302433 -0.9511801004
H  3.2360701561 3.0241501331 -1.5554500818
H  3.9130702019 3.8905704021 0.6665600538
H  2.1678202152 3.8680503368 1.0782200098
