17

C  0.9653300643 0.0338300057 0.0791500062
C  2.4781701565 -0.0045900005 -0.1198500097
O  2.9366400242 -1.2729401588 -0.5839700699
C  2.6409101486 -1.5095500946 -1.9542602301
C  3.1840503216 -0.3854700327 -2.8144402504
C  2.6618702412 0.9400801063 -2.2950901985
O  2.9543602467 1.0816801786 -0.9107700586
H  0.6598000526 0.9923600554 0.5100600123
H  0.6441300511 -0.7787500620 0.7381400466
H  0.4202600121 -0.0819200054 -0.8610600829
H  2.9309701920 0.1290000081 0.8686500788
H  3.1096301079 -2.4574401379 -2.2378401756
H  1.5604501963 -1.6331501007 -2.0876302719
H  4.2780103683 -0.3837300241 -2.7353601456
H  2.9170103073 -0.5293600559 -3.8654904366
H  3.1472303867 1.7665901184 -2.8251101971
H  1.5841401815 1.0414201021 -2.4617400169
