14

C  1.0155800581 0.0183900017 -0.0203800015
C  2.5281500816 0.1188400090 0.0194500014
C  2.9543402195 1.5458501577 0.0039400002
N  3.1613101959 2.2775201797 1.0453600883
O  3.5222604275 3.5426802635 0.5431500077
C  3.4802701473 3.4242203236 -0.8770500422
O  3.1018300056 2.1056702137 -1.2094000578
H  0.7012500167 -1.0297600031 -0.0048600002
H  0.6135800481 0.4838200212 -0.9269500971
H  0.5645500422 0.5246900320 0.8401000500
H  2.9688904285 -0.3979500532 -0.8393800855
H  2.9153699875 -0.3571100235 0.9263401031
H  4.4698801041 3.6424503326 -1.2896901369
H  2.7504000664 4.1331400871 -1.2794600725
