12

C  1.0725001097 -0.0439100042 0.1784400046
C  2.3944602013 0.0227300022 -0.0092000011
C  3.2868902683 1.2071800232 0.0204700027
O  4.6017203331 0.7393600941 -0.3374800384
N  4.4970602989 -0.6610400677 -0.4998400211
C  3.2372901440 -1.1430400610 -0.3114100397
O  2.8724701405 -2.3021199703 -0.3747400343
H  0.5487400293 -0.9950400591 0.1192200035
H  0.4848300517 0.8419900537 0.3922100365
H  3.3431603909 1.6461601257 1.0195000172
H  2.9836401939 1.9670500755 -0.7052201033
H  5.3161501884 -1.2179100513 -0.7005600333
