15

N  2.2960901260 -0.7353600264 -1.2364300489
C  2.3290102482 0.1385300010 -0.2043000162
N  1.4983000755 0.1696600169 0.7715500593
C  3.4283802509 1.1205501556 -0.2266200185
C  3.4877603054 2.1685700417 -1.3134300709
C  3.1549501419 2.5695202351 0.0904800072
O  4.1991806030 3.2637403011 0.7905800343
H  2.8170902729 -0.4812600315 -2.0684900284
H  1.4113701582 -1.1853200197 -1.4305701256
H  0.8194300532 -0.5864000916 0.6635600328
H  4.3752803802 0.7239200473 0.1260700077
H  2.6879403591 2.2172901630 -2.0419702530
H  4.4617404938 2.4452300072 -1.6989201307
H  2.1294400692 2.8592300415 0.3000700176
H  4.0944604874 3.1445803642 1.7513601780
