12

N  1.0000001192 0.0000000000 0.0000000000
C  2.1510102749 0.0000000000 0.0000000000
C  3.5570101738 0.0000000000 0.0000000000
C  4.3502502441 1.0848100185 -0.0049600005
C  5.7313103676 0.6626100540 -0.0017500002
C  5.7873907089 -0.6771800518 0.0053100004
C  4.3955802917 -1.2450100183 0.0069900006
H  4.0349502563 2.1179900169 -0.0100800004
H  6.5743103027 1.3370200396 -0.0044100005
H  6.6903405190 -1.2712101936 0.0092200013
H  4.2219500542 -1.8543500900 -0.8857300878
H  4.2204403877 -1.8452402353 0.9057000875
