16

C  1.3835901022 -0.2843500078 -0.1850300133
O  2.7529401779 -0.0487000011 0.1178500131
C  3.1211903095 1.3110300303 -0.1252000034
C  4.5917501450 1.4870702028 0.2104900181
C  5.4259705544 0.7912600040 -0.8259500265
N  6.2257604599 1.4620500803 -1.5909000635
O  6.8762607574 0.5708300471 -2.4529101849
H  1.1651000977 -1.3375301361 0.0102900006
H  1.1831201315 -0.0756100118 -1.2401300669
H  0.7401500344 0.3307500482 0.4509900510
H  2.5195701122 1.9610000849 0.5205600262
H  2.9234402180 1.5653100014 -1.1732500792
H  4.8267903328 1.0373201370 1.1803300381
H  4.8523101807 2.5498802662 0.2325500101
H  5.3261008263 -0.3071400225 -0.9031200409
H  7.4673409462 1.1608600616 -2.9566001892
