14

O  1.4554201365 -0.3027800322 -0.1213800088
N  2.7949802876 0.1041900069 -0.0827200040
C  2.9230101109 1.3994401693 -0.0230800025
C  1.7819501162 2.3744702339 0.0466300026
C  1.8576301336 3.6970102787 -0.1511400193
C  4.2921500206 1.9944801331 0.0461600050
C  5.3414301872 1.3768601418 -0.5111000538
H  1.5383301973 -1.2734701633 -0.1634500176
H  0.8113100529 1.9313200712 0.2470400184
H  2.7780401707 4.2135601044 -0.3957500458
H  0.9583900571 4.3039703369 -0.0927500054
H  4.4192700386 2.9302601814 0.5756900311
H  5.2338504791 0.4321100414 -1.0366600752
H  6.3356509209 1.8051501513 -0.4480300248
