14

C  0.8937900662 0.7751801014 -0.0337500051
C  2.1950500011 0.4812600315 -0.0842600092
N  3.1644103527 1.4410401583 0.0486700013
C  4.5154805183 1.1603300571 -0.0003300000
O  5.0010800362 0.0458200015 -0.1645900160
C  5.3576407433 2.3756101131 0.1702300161
C  6.6936807632 2.2861001492 0.1490400136
H  0.1541500092 -0.0121800005 -0.1430900097
H  0.5279700160 1.7847701311 0.1145100147
H  2.5378203392 -0.5418300033 -0.2343900204
H  2.8654901981 2.3970401287 0.1889000088
H  4.8724603653 3.3323404789 0.3115300238
H  7.1960406303 1.3321801424 0.0080100009
H  7.3147606850 3.1664302349 0.2724699974
