12

C  1.0223101377 0.0249900017 -0.1725700051
C  2.3370800018 -0.0573800057 0.0370900035
C  3.2461502552 -1.2305999994 0.1498400122
N  4.4848103523 -0.5987600088 0.6265100241
N  4.4638700485 0.7645300627 0.5177500248
C  3.2383604050 1.0870101452 0.2390800267
H  0.4216500223 -0.8700000644 -0.3006100357
H  0.5125000477 0.9820900559 -0.2145200223
H  3.4062302113 -1.6907601357 -0.8299300671
H  2.8888702393 -1.9743502140 0.8663900495
H  5.3220205307 -1.0054401159 0.2100100070
H  2.8680102825 2.1159801483 0.1264200062
