12

C  3.2948603630 -1.3277100325 0.3877700269
C  2.5366899967 -0.0411700048 0.1938200146
O  1.3075700998 -0.0126300007 0.1788000166
C  3.2736203671 1.2364401817 0.0141300010
C  4.6092200279 1.3434801102 0.0088800006
C  5.2490601540 2.5992600918 -0.1683800220
N  5.7770600319 3.6213703156 -0.3125700355
H  3.9053401947 -1.2727301121 1.2928000689
H  3.9163603783 -1.5343801975 -0.4873300493
H  2.5837602615 -2.1513500214 0.5046100616
H  2.6323301792 2.1049201488 -0.1169200093
H  5.2622504234 0.4890900254 0.1378200054
