17

C  1.7761601210 -1.3291500807 0.4956400394
C  3.2730300426 -1.0827400684 0.6072500348
N  3.6420602798 0.0873400047 -0.1864500195
C  5.0718803406 0.3605000377 -0.0829500034
C  5.4032902718 1.5454701185 -0.9358700514
C  5.9618902206 2.6771402359 -0.4858300388
H  1.4946501255 -2.2093400955 1.0824501514
H  1.4808601141 -1.5081300735 -0.5435800552
H  1.2037700415 -0.4753800333 0.8734400868
H  3.8069500923 -1.9696701765 0.2471800148
H  3.5335702896 -0.9320101142 1.6614701748
H  3.1306800842 0.9020400643 0.1520300210
H  5.6501102448 -0.4967400432 -0.4469200373
H  5.3556604385 0.5404000878 0.9608900547
H  5.1730008125 1.4551401138 -1.9956901073
H  6.2127804756 2.8140301704 0.5611100197
H  6.1769504547 3.4956603050 -1.1658401489
