13

C  1.0523500443 -0.0290200021 -0.0107500004
C  2.5584402084 0.0848400071 0.0116200009
C  3.3514404297 -1.2029600143 -0.0277500022
C  3.5189502239 -1.6465501785 -1.4127901793
N  3.6324801445 -2.0272600651 -2.5024702549
N  3.0745701790 1.2785900831 0.0337500051
O  4.4710803032 1.2364300489 0.0165800005
H  0.5887300372 0.9593400359 0.0524700023
H  0.7216100693 -0.6318100691 0.8393200636
H  0.7363100648 -0.5119500756 -0.9391700625
H  2.8049302101 -1.9609801769 0.5443400145
H  4.3208799362 -1.0817400217 0.4635400176
H  4.7103700638 2.1831903458 -0.0151300011
