11

N  0.9911600947 0.0745300055 -0.1816500127
C  2.3453102112 -0.0487000011 -0.1003300101
C  3.1570503712 -1.1012600660 -0.0464400053
C  4.5417504311 -0.6087800264 0.0420200042
O  5.5125603676 -1.3417700529 0.1113400087
N  4.5227704048 0.7626100779 0.0413000025
C  3.2767302990 1.0838100910 -0.0456700027
H  0.4771000147 -0.7633700371 0.0816800073
H  0.6135500669 0.9194000959 0.2416800112
H  2.9133801460 -2.1470000744 -0.0621800050
H  2.8907001019 2.1128301620 -0.0772300065
