15

C  1.6337401867 -0.6897500157 -1.0425901413
C  2.0353901386 0.1821000129 -0.1073600054
C  3.0898301601 1.2501900196 -0.2269600183
C  3.6067104340 1.6121301651 -1.6310201883
C  3.7279102802 3.0855603218 -1.5220501423
C  3.1138703823 3.4722402096 -0.4113200307
O  2.5606400967 2.4708802700 0.3578600287
H  0.8554400802 -1.4137600660 -0.8174900413
H  2.0551500320 -0.7175600529 -2.0412101746
H  1.5626401901 0.1272900105 0.8724800944
H  3.9384202957 0.9502400756 0.4042800367
H  2.9073803425 1.3655700684 -2.4357802868
H  4.5654807091 1.1265500784 -1.8361601830
H  4.1812500954 3.7360000610 -2.2537002563
H  2.9502203465 4.4712505341 -0.0431200005
