12

C  0.9518000484 0.0625500083 -0.0053400001
C  2.4273002148 -0.0271900035 -0.0019200002
N  3.1863803864 1.0785200596 -0.0015000001
O  4.5007605553 0.6331100464 0.0017500002
C  4.5198903084 -0.7254500389 0.0031000003
C  3.2324104309 -1.1824601889 0.0008100001
O  2.8424103260 -2.4671301842 0.0011200000
H  0.6098600030 1.1026400328 0.0042500002
H  0.5367600322 -0.4371500313 0.8758100867
H  0.5422500372 -0.4192700386 -0.8989300728
H  5.4994807243 -1.1771701574 0.0055800001
H  3.6133801937 -3.0607101917 0.0032600001
