20

C  0.7301800847 0.2045800090 -0.1295500100
C  2.1682500839 -0.2352900207 -0.0819400102
C  2.3924002647 -1.7158300877 -0.2109000087
C  3.1635704041 0.6617400646 0.0619700029
C  4.6431999207 0.3781500459 0.0826100037
C  5.2704901695 0.7716900110 1.4248201847
N  6.7107205391 0.5194000602 1.4279401302
H  0.6250000000 1.2913701534 -0.0434200056
H  0.1675300002 -0.2491000146 0.6931600571
H  0.2721900046 -0.1006600112 -1.0760900974
H  1.4758001566 -2.2733299732 0.0094600013
H  3.1518402100 -2.0708003044 0.4926200509
H  2.7005503178 -1.9661102295 -1.2308001518
H  2.9076304436 1.7180901766 0.1435400099
H  5.1101303101 0.9546101093 -0.7261100411
H  4.8535599709 -0.6756200194 -0.1302000135
H  4.8045706749 0.2072800249 2.2409603596
H  5.1006002426 1.8365501165 1.6215301752
H  6.8804306984 -0.4776000082 1.2994800806
H  7.0889806747 0.7562000155 2.3442101479
