20

C  1.4209901094 -0.4559500217 0.9845700860
C  2.2634100914 -0.3281200230 -0.2920200229
C  2.0372002125 -1.5243901014 -1.2379001379
N  2.4025402069 -2.7942202091 -0.6131600738
C  1.9248400927 1.0086400509 -0.9862200618
C  2.8260302544 1.3225001097 -2.1483402252
C  2.3955202103 1.5068401098 -3.4027502537
H  1.5850501060 0.4029100239 1.6441100836
H  1.6845501661 -1.3547002077 1.5506601334
H  0.3521900475 -0.5021700263 0.7498300672
H  3.3213002682 -0.3082400262 0.0049900003
H  2.6348102093 -1.4113900661 -2.1485002041
H  0.9851000309 -1.5703002214 -1.5410901308
H  3.3907802105 -2.7774901390 -0.3641600311
H  2.2933800220 -3.5455701351 -1.2930901051
H  2.0268201828 1.8280501366 -0.2633000016
H  0.8739600778 1.0038701296 -1.3031001091
H  3.8892004490 1.4166201353 -1.9355400801
H  1.3439800739 1.4339201450 -3.6631503105
H  3.0936901569 1.7407401800 -4.2008304596
