15

C  0.9611400366 0.0414300039 -0.0054900004
C  2.4446401596 0.0312100016 -0.0071600005
C  3.2840602398 1.0822300911 -0.0060800002
C  4.6451601982 0.6030400395 -0.0011100001
C  4.6439599991 -0.7375400662 0.0016900001
C  3.2348902225 -1.2473301888 0.0106600011
O  2.9960901737 -1.9929802418 -1.1644799709
H  0.5680600405 1.0632200241 0.0080000004
H  0.5771000385 -0.4787300229 0.8774700761
H  0.5722000599 -0.4566800594 -0.8988900781
H  3.0092701912 2.1265101433 -0.0093500009
H  5.5146002769 1.2439700365 -0.0028300001
H  5.5168504715 -1.3722400665 0.0054500005
H  3.0263602734 -1.8541101217 0.8964900374
H  3.1636102200 -1.3877301216 -1.9068001509
