11

O  0.9975000620 0.3603400290 -1.0698500872
C  1.9422801733 -0.0316200033 -0.3893600106
C  3.0704202652 0.8652400374 0.0154400012
C  4.3807306290 0.1454000026 0.1099200100
O  4.5255498886 -1.0591700077 -0.0581200048
C  5.5294404030 0.9560500979 0.4611800313
C  6.4795603752 1.6268700361 0.7629000545
H  1.9303301573 -1.0414600372 0.0554900020
H  2.8294303417 1.2813900709 0.9979701042
H  3.1569902897 1.6744800806 -0.7185900211
H  7.3290104866 2.2107102871 1.0314501524
