14

C  0.8497900367 -0.2637100220 -0.4248300195
C  2.3438000679 -0.2618600130 -0.3716000319
C  3.0644900799 0.6634100080 0.2782500386
C  4.5099201202 0.6437000632 0.3159300089
C  5.2341604233 1.5671401024 0.9647400379
C  6.6394701004 1.5332801342 0.9925401211
N  7.7899208069 1.5055601597 1.0153000355
H  0.4630900323 -1.1930201054 0.0045600007
H  0.5141800046 -0.1988100111 -1.4645200968
H  0.4136800468 0.5748200417 0.1275100112
H  2.8374102116 -1.0726600885 -0.9016700983
H  2.5546402931 1.4692300558 0.8044000864
H  5.0116705894 -0.1663000137 -0.2127100229
H  4.7553901672 2.3813500404 1.4971301556
