18

O  2.2342202663 1.7437901497 3.0949101448
C  2.6722602844 2.5451300144 2.0015602112
C  3.1479604244 1.6312601566 0.8804500699
C  3.5172302723 2.3942203522 -0.3913600445
N  4.6190099716 3.3308300972 -0.1368800104
C  5.8998804092 2.9007902145 -0.6898200512
C  5.0975704193 3.9914202690 -1.3465801477
H  2.0044901371 2.3562400341 3.8145601749
H  3.4771203995 3.1969702244 2.3559002876
H  1.8308501244 3.1633400917 1.6728301048
H  2.3558900356 0.9088600874 0.6474100947
H  3.9978201389 1.0320501328 1.2311201096
H  2.6412003040 2.9597704411 -0.7334800363
H  3.7479503155 1.6671701670 -1.1823400259
H  5.9675703049 1.9378502369 -1.1846501827
H  6.7770304680 3.1841902733 -0.1214800104
H  5.4315304756 5.0150804520 -1.2193700075
H  4.5996203423 3.7813501358 -2.2843301296
