16

N  0.9528700709 0.1968800128 -0.0568400025
C  2.3867201805 -0.0871500075 0.0199600011
C  3.2138001919 1.1962500811 -0.1319800168
C  4.7017002106 0.9380800724 -0.0447800048
C  5.4480104446 1.4240400791 0.9595300555
C  5.3438601494 0.1841600239 -1.0750700235
C  5.8756103516 -0.4537500441 -1.9397501945
H  0.4364200532 -0.6797100902 0.0105200009
H  0.7323600650 0.5839900374 -0.9740400314
H  2.6442201138 -0.8080000877 -0.7642000914
H  2.6007900238 -0.5595100522 0.9853200912
H  2.9078702927 1.9148101807 0.6402400136
H  2.9925904274 1.6723001003 -1.0965100527
H  5.0086507797 2.0134801865 1.7581200600
H  6.5187807083 1.2480499744 1.0107301474
H  6.3505902290 -1.0213400126 -2.7072801590
