13

O  0.8445701003 0.0867200121 0.0508000031
C  2.2873902321 -0.0093000010 0.0085300012
C  3.0807301998 0.9650000930 0.8917601109
O  3.9440503120 -0.1107800081 1.3519901037
C  2.9619603157 -1.0837000608 0.8924600482
C  3.6071302891 -2.1726102829 0.1932000071
C  4.1324601173 -3.0851802826 -0.3829900324
H  0.5314700603 -0.6666900516 -0.4803800583
H  2.6344501972 0.0020000001 -1.0324200392
H  2.5298001766 1.4161400795 1.7232800722
H  3.6392302513 1.7348800898 0.3530400097
H  2.3440501690 -1.4205701351 1.7338101864
H  4.6051201820 -3.8982701302 -0.8874800205
