17

O  1.4244701862 -0.0420000032 0.4361300170
C  2.7141501904 0.2760500312 -0.0857400075
C  2.7863502502 -0.1245800033 -1.5692100525
C  2.7214801311 -1.6187601089 -1.7610502243
C  3.6736602783 -2.3507699966 -2.3533401489
C  2.8967802525 1.7562800646 0.0935200080
C  3.8783402443 2.3228602409 0.8077600598
H  1.4246001244 0.2482700199 1.3643500805
H  3.4579703808 -0.2858000100 0.4919300377
H  3.7064802647 0.2717500031 -2.0170602798
H  1.9417800903 0.3138600290 -2.1166501045
H  1.8228800297 -2.1113603115 -1.3921500444
H  4.5823402405 -1.9023001194 -2.7423202991
H  3.5565102100 -3.4248504639 -2.4637200832
H  2.1639502048 2.3956701756 -0.3958300352
H  4.6334404945 1.7309501171 1.3157200813
H  3.9458701611 3.4034001827 0.8960100412
