13

N  0.9452300668 -0.0011300000 -0.0394400023
C  2.2407703400 0.0226600021 -0.0514400005
N  2.9606902599 1.1906801462 -0.2037500143
O  4.1912703514 1.1692200899 0.4851100445
C  5.0036401749 0.1026700065 -0.0398000032
C  4.2858800888 -1.2125899792 0.0367900021
C  2.9478502274 -1.2755001783 0.0727400035
H  0.5785599947 0.9444100857 -0.1593800187
H  2.4390301704 2.0381102562 -0.0074500004
H  5.9043703079 0.0597000010 0.5805300474
H  5.3074002266 0.3332100213 -1.0668901205
H  4.8769001961 -2.1206099987 0.0666900054
H  2.3729002476 -2.1877403259 0.1379600018
