19

N  1.8591800928 -0.1322200149 -1.4986101389
C  3.1008203030 0.0630000010 -0.7341100574
C  2.9926402569 1.2565200329 0.2501700222
N  1.7569501400 1.1699401140 1.0392401218
C  4.1561303139 1.3043900728 1.1997901201
C  5.3024001122 2.2568001747 0.9565000534
C  4.3625302315 2.4977800846 2.1029601097
H  1.9965600967 -0.8914300203 -2.1654500961
H  1.6794201136 0.7039100528 -2.0555200577
H  3.9382402897 0.2242100239 -1.4235601425
H  3.3082802296 -0.8622900248 -0.1838800013
H  2.9416501522 2.1849100590 -0.3340700269
H  1.8125300407 0.3433400095 1.6323602200
H  1.0183800459 0.9291200638 0.3691900373
H  4.3886504173 0.3325900435 1.6241601706
H  5.2502603531 2.9416000843 0.1171800122
H  6.3060102463 1.9178601503 1.1887501478
H  4.7191705704 2.3106102943 3.1086802483
H  3.6567902565 3.3180701733 2.0303001404
