18

C  1.1946301460 -0.2778200209 0.9326400161
C  2.6474201679 -0.3358500302 0.4789400399
C  3.3012902737 1.0511200428 0.3129700124
N  3.3345401287 1.7856501341 1.5918700695
C  4.7398505211 0.9185200930 -0.2536500096
N  5.6903605461 0.3818500340 0.7297600508
H  0.7586200833 -1.2825400829 0.9204000831
H  0.5995900631 0.3576900363 0.2707600296
H  1.1074501276 0.1049800068 1.9547101259
H  2.6824502945 -0.8601300716 -0.4837100506
H  3.2152802944 -0.9484000802 1.1899300814
H  2.7121801376 1.6375901699 -0.4026500285
H  3.7443304062 1.1658401489 2.2918002605
H  2.3809399605 1.9571300745 1.9051401615
H  5.0943202972 1.9085501432 -0.5672700405
H  4.7386608124 0.2782300413 -1.1424401999
H  5.7133102417 1.0429501534 1.5080801249
H  6.6252107620 0.4041000307 0.3252500296
