18

C  1.1976000071 -0.5519300103 0.4103800058
C  2.3857002258 0.1183300093 -0.2877200246
N  2.6153199673 -0.5471799970 -1.5772101879
C  2.2767200470 1.6161301136 -0.5154000521
C  1.1930600405 2.3597800732 -0.2194300145
C  3.5159401894 2.2838602066 -1.0711801052
O  3.7474303246 1.8609901667 -2.4078803062
H  1.0209800005 -0.1094600111 1.3978500366
H  1.3885900974 -1.6203501225 0.5639899969
H  0.2745800316 -0.4624000192 -0.1748200208
H  3.2690000534 -0.0538400039 0.3410400152
H  1.7429500818 -0.5195000172 -2.1100602150
H  2.7889902592 -1.5385000706 -1.4072301388
H  0.2846600115 1.9371100664 0.1949000061
H  1.1820801497 3.4317202568 -0.3985300362
H  4.3931303024 2.0290701389 -0.4657800198
H  3.4300301075 3.3755702972 -1.0789601803
H  3.5327203274 0.9031500816 -2.4139502048
