16

C  0.5565000772 1.1953800917 0.6541900635
C  -0.8541901112 0.7463900447 0.4209900498
C  -0.8718801141 -0.0122800013 -0.8516000509
C  0.5277700424 -0.0191900022 -1.3862401247
N  1.2046601772 0.0002500000 -0.0245400015
C  0.5573599935 -1.1766401529 0.6876300573
C  -0.8537300825 -0.7352200747 0.4416800141
H  0.8059100509 2.1315402985 0.1447600126
H  0.8268401027 1.2527101040 1.7131701708
H  -1.6738600731 1.3441700935 0.7669100761
H  -1.7051801682 -0.0220100023 -1.5249902010
H  0.7763301134 -0.9258700609 -1.9457201958
H  0.7756500840 0.8714900613 -1.9707601070
H  0.8276500702 -1.2038201094 1.7474101782
H  0.8074100614 -2.1261401176 0.2043700069
H  -1.6726601124 -1.3234801292 0.8042300344
