17

C  2.2899801731 0.8029900193 2.1012301445
C  3.0125401020 0.1958500147 0.9094200730
N  3.5727005005 1.2259401083 0.0439200029
O  2.6055402756 1.8824501038 -0.7292900085
C  4.6684203148 2.0095701218 0.3568300307
C  5.7578907013 1.4617002010 1.2469600439
N  4.8104004860 3.2180402279 -0.0925900117
H  1.8533601761 0.0136500010 2.7212300301
H  1.4823800325 1.4685801268 1.7790901661
H  2.9726202488 1.3863600492 2.7274203300
H  2.3094000816 -0.4149500132 0.3312800229
H  3.7999603748 -0.4819800258 1.2548002005
H  2.9051403999 1.6987401247 -1.6408801079
H  5.4088306427 1.4448400736 2.2826201916
H  6.6520304680 2.0888700485 1.1869800091
H  6.0189905167 0.4468600452 0.9355201125
H  3.9552903175 3.4194102287 -0.6252800226
