16

C  0.9753200412 -0.3433700204 -0.0507400036
C  2.4738702774 -0.0691900030 -0.0273500029
O  3.0757703781 -0.6264200211 -1.1924701929
C  2.7725601196 1.4328200817 0.0195800029
C  4.2711801529 1.7425901890 0.0886700079
C  4.8486003876 1.3634300232 1.3842301369
N  5.2913203239 1.0754500628 2.4187102318
H  0.4890000522 0.0348899998 0.8535100818
H  0.7860400677 -1.4195301533 -0.1263100207
H  0.5021100640 0.1216500103 -0.9226300716
H  2.9108402729 -0.5741000772 0.8404000401
H  2.5107500553 -0.4250600338 -1.9587101936
H  2.2557501793 1.8894002438 0.8729900122
H  2.3788402081 1.9028601646 -0.8909100294
H  4.4114203453 2.8204901218 -0.0561600029
H  4.8097004890 1.2455700636 -0.7254700661
