20

C  0.8237100244 -0.1890300065 0.0730800107
C  2.3205201626 0.0966300070 0.0138100004
C  2.7427401543 1.5528100729 -0.0604800060
C  1.8903100491 2.5909202099 -0.1119800135
C  4.2430601120 1.7988902330 -0.0334900022
C  4.9506907463 1.3369700909 -1.3148901463
N  6.3732905388 1.6766802073 -1.2854100466
H  0.6518400908 -1.2692000866 0.1250600070
H  0.3107800186 0.1854900122 -0.8189100623
H  0.3658200204 0.2643300295 0.9581300616
H  2.7232701778 -0.4313000143 -0.8582300544
H  2.7846300602 -0.3516400158 0.9010601044
H  0.8126800656 2.4641602039 -0.1164800078
H  2.2479801178 3.6166501045 -0.1476200074
H  4.6720604897 1.2868300676 0.8374100327
H  4.4423799515 2.8682303429 0.1189400032
H  4.4890103340 1.8023700714 -2.1932899952
H  4.8606500626 0.2517600060 -1.4299901724
H  6.4785804749 2.6900203228 -1.2466700077
H  6.8049507141 1.3807200193 -2.1602301598
