17

C  0.9489600658 -0.1774100065 0.1167600155
C  2.4482002258 0.0292100031 -0.1035600081
C  2.9876501560 -0.9425400496 -1.1534600258
N  2.7464001179 1.4309900999 -0.4252600372
N  2.4611902237 1.9013701677 -1.7375800610
C  2.9233503342 2.3863301277 0.5713500381
O  2.9692802429 3.5978400707 0.3857900500
H  0.5740400553 0.4878100455 0.9024300575
H  0.7380200624 -1.2087601423 0.4188700318
H  0.3779700398 0.0330500044 -0.7944600582
H  2.9532902241 -0.1931700110 0.8449100256
H  2.4834902287 -0.8214300275 -2.1185503006
H  2.8436501026 -1.9791700840 -0.8301400542
H  4.0598201752 -0.7843600512 -1.3136101961
H  3.3533103466 2.2022702694 -2.1408600807
H  1.9457201958 2.7839901447 -1.6282401085
H  3.0369403362 1.9401100874 1.5725901127
