13

C  1.0507500172 -0.0152700003 0.0902600065
C  2.5352501869 -0.0045200000 -0.0206700005
N  3.2661502361 -1.0745900869 -0.1105500087
N  4.5598201752 -0.6349700689 -0.1909700185
C  4.7107000351 0.7418100834 -0.1552000046
O  5.7454705238 1.3797299862 -0.2107400149
C  3.3171701431 1.2768101692 -0.0325200036
H  0.6729000211 -1.0402301550 0.0540400036
H  0.6214000583 0.5567300916 -0.7361700535
H  0.7554500699 0.4448500276 1.0366200209
H  5.3298306465 -1.2885900736 -0.2706400454
H  3.0499203205 1.8816001415 -0.9006800652
H  3.1842801571 1.8163301945 0.9065400958
