12

O  0.4958800375 0.3213500381 0.0942600071
N  1.5328201056 1.2622401714 0.0840000063
C  2.6639602184 0.6340500712 0.1271400154
C  3.9744904041 1.3702900410 0.1300000101
O  5.0025501251 0.7076700330 0.1935600042
C  3.9524402618 2.8535702229 0.0541600026
C  5.0933904648 3.5544903278 0.0592500046
H  -0.3037300110 0.8805500865 0.0631400049
H  2.7502202988 -0.4652000368 0.1652800143
H  2.9893302917 3.3464903831 -0.0047300006
H  6.0630702972 3.0663301945 0.1185100079
H  5.0801806450 4.6375503540 0.0040200003
