15

C  0.8846600652 -0.0206500012 0.1683700234
C  2.3938801289 -0.0048900000 -0.0436900035
C  3.1422300339 1.0226900578 0.8281700611
O  3.7858603001 -0.0171500016 1.6009801626
C  3.1596503258 -1.0446100235 0.7980700731
C  2.7410101891 0.0186200012 -1.4574100971
C  3.0309202671 0.0380000025 -2.6215200424
H  0.6280800700 -0.0385000035 1.2338200808
H  0.4298500419 -0.9046800733 -0.2932400405
H  0.4149800241 0.8688500524 -0.2671200037
H  2.5178802013 1.6565700769 1.4665900469
H  3.8806602955 1.6515702009 0.3193400204
H  3.9084203243 -1.6458101273 0.2714400291
H  2.5463001728 -1.7071701288 1.4175901413
H  3.2930402756 0.0552500039 -3.6554703712
