12

C  0.6758600473 0.0814200118 -0.1177600101
C  2.1010901928 0.0123000015 0.3200900257
C  3.0190701485 0.9345900416 0.0135200005
O  4.3388104439 0.8162400723 0.4520000219
C  5.1828603745 1.8250601292 0.0809200034
O  4.9288806915 2.8171203136 -0.5853000283
H  0.4261400402 -0.8000400066 -0.7162500620
H  0.4712900221 0.9721800685 -0.7203100920
H  0.0174700003 0.1015000045 0.7562900782
H  2.3885302544 -0.8458500504 0.9223200679
H  2.8086202145 1.8153501749 -0.5810200572
H  6.1804203987 1.6022101641 0.4921000302
