12

C  0.1461200118 0.9864400625 -0.1563000083
O  -0.7004100680 -0.1282600015 0.1380200088
C  0.7054000497 -0.4055600464 0.0054300004
C  1.3675901890 -0.9045600295 1.2748601437
C  1.2301101685 -2.3229701519 1.7681802511
O  2.4036302567 -1.8816301823 1.0776500702
H  0.0948400125 1.4047200680 -1.1533701420
H  0.3145400286 1.7101501226 0.6304700375
H  1.0096000433 -0.9074200988 -0.9099500775
H  1.5520901680 -0.1529800147 2.0367202759
H  0.5514900088 -2.9843699932 1.2437601089
H  1.3107300997 -2.5049500465 2.8317501545
