14

C  0.9794300795 -0.0666900054 0.1424500048
N  2.4321603775 0.0428500026 0.1706200093
C  3.1532502174 -1.2127500772 -0.0383200049
C  3.0560002327 1.2589401007 -0.0549900047
N  2.5278201103 2.4341602325 -0.0488300063
C  4.4905204773 1.3267700672 -0.3445800245
N  5.6296706200 1.3119601011 -0.5774600506
H  0.5226700306 0.6379400492 0.8449600339
H  0.6393100619 -1.0658601522 0.4349400401
H  0.6018700600 0.1403800100 -0.8641800880
H  2.5963602066 -2.0665700436 0.3625500500
H  4.1195402145 -1.2032700777 0.4767000377
H  3.3184003830 -1.3836400509 -1.1071500778
H  1.5350000858 2.3732702732 0.1711700112
