18

C  2.6319501400 -1.0171101093 -0.5184400678
C  2.1088302135 0.3548500240 -0.1241400093
C  3.2157402039 1.2581700087 0.3285200298
N  3.7509403229 2.2840301991 -0.5694800615
C  2.9415402412 2.7235300541 0.5752500296
C  3.6062402725 3.4406301975 1.7129701376
O  5.0133905411 3.2236001492 1.6932901144
H  1.8105901480 -1.6544700861 -0.8588300943
H  3.1145703793 -1.5091000795 0.3324300349
H  3.3685402870 -0.9411400557 -1.3242801428
H  1.3885700703 0.2406500280 0.6942700148
H  1.5638301373 0.7909700274 -0.9702900648
H  3.9262802601 0.7663500905 0.9854400754
H  3.2090902328 2.3366601467 -1.4351301193
H  1.9518201351 3.1106503010 0.3645200133
H  3.2128102779 3.0911700726 2.6719202995
H  3.4284703732 4.5172700882 1.6349401474
H  5.2198505402 3.0082001686 0.7604500651
