14

C  1.1096600294 0.2161900103 -0.0286600031
N  2.3413300514 0.3490000367 -0.7967800498
C  3.3581202030 0.7781000733 -0.1349300146
N  4.6168804169 0.9795000553 -0.6608100533
C  5.7622704506 0.7031700611 0.2167500108
C  5.3938603401 2.1072602272 -0.1272400171
H  0.8419000506 -0.8416900635 0.0552400015
H  0.2991000116 0.7296800613 -0.5543699861
H  1.1664900780 0.6356600523 0.9821701050
H  3.2909202576 1.0215901136 0.9424300790
H  6.5833001137 0.2353100181 -0.3091800213
H  5.5189800262 0.3081900477 1.1932101250
H  4.8850903511 2.7218701839 0.6010200381
H  5.9565405846 2.6208002567 -0.8937700987
