18

N  0.9812300801 -0.0266200025 0.0188200008
C  2.4393801689 -0.0328300036 0.0136700012
C  2.9729504585 1.3981101513 -0.0053300005
C  4.5029902458 1.4167600870 -0.0001500000
C  5.0361304283 2.8475003242 -0.0184400026
N  6.4945106506 2.8413701057 -0.0277900007
H  0.6405000687 -0.9868600368 -0.0106700007
H  0.6375100613 0.4221500456 -0.8294600248
H  2.7974901199 -0.5838900805 -0.8626700640
H  2.7968401909 -0.5564600825 0.9066901207
H  2.5976800919 1.9460901022 0.8685000539
H  2.6043603420 1.9212901592 -0.8969901204
H  4.8777203560 0.8694900870 -0.8742300868
H  4.8714504242 0.8933400512 0.8910101056
H  4.6807103157 3.3975203037 0.8599700332
H  4.6764206886 3.3730902672 -0.9096000195
H  6.8406805992 2.3908500671 0.8186700344
H  6.8353404999 3.8017103672 0.0026300002
