16

N  0.3897600174 1.0804700851 -0.7749701142
C  1.0501800776 -0.1785800010 -0.4213700294
C  1.6737601757 -0.9951301217 -1.5126001835
C  2.5522301197 -0.2906900346 -0.5145200491
O  3.1654200554 -1.1132100821 0.5000400543
C  4.3995304108 -1.5739300251 0.1194800138
C  5.1536703110 -2.3129103184 0.9331800938
H  0.3765400350 1.7099201679 0.0283500012
H  -0.5878700018 0.9143000841 -1.0146700144
H  0.5750499964 -0.7289000750 0.3883300424
H  1.6572401524 -0.6078200340 -2.5239002705
H  1.5918600559 -2.0730900764 -1.4471801519
H  3.0832402706 0.6001900434 -0.8384300470
H  4.7096700668 -1.3008300066 -0.8804700971
H  4.8109402657 -2.5693800449 1.9295401573
H  6.1272602081 -2.6725502014 0.6176900268
