13

C  2.7961902618 -1.0812801123 0.4022800326
C  2.1986601353 0.0929000080 0.1712900102
C  2.9431502819 1.3028299809 0.1051500067
C  2.4780800343 2.5930202007 -0.1243900061
C  3.5878601074 3.4704201221 -0.1003500074
C  4.6816005707 2.6807601452 0.1423400193
O  4.3106002808 1.3841501474 0.2671000063
H  2.2160401344 -1.9968800545 0.4502200484
H  3.8696701527 -1.1631801128 0.5487700105
H  1.1231300831 0.1359700114 0.0296900012
H  1.4442601204 2.8630902767 -0.2907200158
H  3.5889101028 4.5417203903 -0.2420100123
H  5.7391901016 2.8757300377 0.2501300275
