15

C  2.8289301395 -0.8471500278 1.2829201221
C  2.5863201618 -0.0818500072 -0.0099500008
C  3.0969703197 1.3538900614 0.0514100008
C  4.6003999710 1.3998800516 0.0712700039
N  5.2322201729 1.9574902058 1.0519900322
O  6.6078705788 1.8684201241 0.8110400438
H  2.3942601681 -1.8495900631 1.2138900757
H  2.3683803082 -0.3363900185 2.1346299648
H  3.8987202644 -0.9590001106 1.4850701094
H  1.5086100101 -0.0646800101 -0.2097900063
H  3.0601801872 -0.6190200448 -0.8398500085
H  2.6923401356 1.8787300587 0.9233200550
H  2.7730500698 1.8894101381 -0.8478000760
H  5.1317901611 0.9492500424 -0.7860800624
H  6.9845504761 2.3243100643 1.5870201588
