20

C  1.0741400719 -0.0079200007 0.1917600185
N  2.5172700882 0.0143000018 -0.0050400002
C  3.1533901691 1.0396200418 0.8569800258
C  4.2605004311 -0.0026800002 1.1885701418
C  4.6787505150 -0.0420700051 2.6537404060
C  5.4741802216 0.0390600003 0.2579300106
C  3.1769001484 -1.0478500128 0.7925500870
H  0.6421000361 -0.8757700324 -0.3186400235
H  0.6235600114 0.8865500689 -0.2527700365
H  0.7719000578 -0.0502800047 1.2455401421
H  2.5623700619 1.3627301455 1.7245301008
H  3.4888002872 1.9346301556 0.3226200044
H  3.8112204075 -0.0713900030 3.3216402531
H  5.2683200836 0.8432500958 2.9146301746
H  5.2875699997 -0.9283701181 2.8618001938
H  5.1815905571 0.0651800036 -0.7972800732
H  6.1055307388 -0.8438600898 0.4041200280
H  6.0830106735 0.9279800653 0.4543600380
H  3.5322704315 -1.9001901150 0.2041900158
H  2.5945401192 -1.4371501207 1.6383001804
