14

O  2.8794400692 -1.0629800558 -0.0154400012
C  2.1125502586 0.1309400052 0.1386900097
C  3.0617702007 1.2862401009 0.2636000216
O  4.1880702972 1.0311100483 1.1207500696
C  3.3448302746 2.1797301769 -0.9140800834
C  2.5544002056 2.7001602650 0.2556400299
H  2.2390401363 -1.7902301550 -0.0980000123
H  1.5114601851 0.0382000022 1.0484000444
H  1.4458000660 0.2369400114 -0.7228300571
H  4.4690804482 0.1041900069 0.9864400625
H  2.8205902576 1.9950102568 -1.8429901600
H  4.3586506844 2.5403699875 -1.0413200855
H  3.0358603001 3.4112403393 0.9179201126
H  1.4938201904 2.8710300922 0.1165200025
