12

C  0.9632700682 -0.1111900061 0.0160500016
C  2.4701101780 0.0584600046 0.0175000001
C  2.8420903683 1.5193301439 0.0079900008
O  2.9634301662 2.1808302402 -1.0155800581
C  3.0128402710 2.1559801102 1.2970800400
C  3.1528003216 2.6876502037 2.3654100895
H  0.6984800696 -1.1727300882 -0.0028800003
H  0.5147600174 0.3702600300 -0.8593700528
H  0.5145400167 0.3379600346 0.9082200527
H  2.9071002007 -0.4115000069 -0.8705100417
H  2.9132802486 -0.4317100346 0.8912401199
H  3.2782902718 3.1698901653 3.3072004318
