13

C  0.9128500819 0.0126400013 0.0564700030
C  2.4011502266 0.0133700008 0.1923700124
C  3.1843004227 1.0434900522 -0.1635800153
C  4.6714601517 1.0598301888 -0.0284900013
O  5.2344207764 1.2186800241 -1.3202700615
H  0.5988800526 -0.8089700341 -0.5951100588
H  0.5349400640 0.9483700395 -0.3679000139
H  0.4492100179 -0.1293500066 1.0375500917
H  2.8450601101 -0.8883200288 0.6094700098
H  2.7393102646 1.9464701414 -0.5757500529
H  5.0637202263 0.1383600086 0.4133800566
H  4.9861803055 1.9021002054 0.5942000151
H  4.8482003212 0.5228700638 -1.8792501688
