17

C  1.0567100048 -0.1903700233 0.1246200055
C  2.5688700676 -0.0434200056 -0.0685800090
C  3.0255801678 -0.8714900613 -1.2756500244
C  2.9582703114 1.4291101694 -0.1215900108
C  3.1372902393 2.1265699863 -1.2559300661
C  3.1751401424 2.1116802692 1.1177400351
C  3.3567402363 2.6800301075 2.1592202187
H  0.7189200521 0.3273800313 1.0291000605
H  0.7799201012 -1.2454800606 0.2256200165
H  0.5033100247 0.2224500030 -0.7264500260
H  3.0630402565 -0.4863600433 0.8076900840
H  2.4932401180 -0.5904200077 -2.1906902790
H  2.8346004486 -1.9362901449 -1.1009000540
H  4.1004500389 -0.7532700300 -1.4507900476
H  2.9938302040 1.6859601736 -2.2357501984
H  3.4256603718 3.1742501259 -1.2360601425
H  3.5187802315 3.1852602959 3.0828702450
