15

C  3.0863902569 -1.0966900587 -0.5541300178
C  2.4959399700 0.1632300168 0.0620800033
N  3.5043902397 1.2259200811 0.0734900087
C  3.4192602634 2.1375701427 -1.0598200560
C  2.9312601089 2.5591602325 0.3102900386
C  3.6857702732 3.5479700565 1.0316700935
N  4.2711701393 4.3714299202 1.6044000387
H  2.3506603241 -1.9071000814 -0.5315600038
H  3.9711203575 -1.4313900471 -0.0018400002
H  3.3745102882 -0.9316101074 -1.5977600813
H  2.2005603313 -0.0539800040 1.0953100920
H  1.5814701319 0.4353200495 -0.4811600447
H  2.6864702702 1.9448500872 -1.8340101242
H  4.3667707443 2.5221202374 -1.4209901094
H  1.8576301336 2.6165902615 0.4555000067
