9

C  1.0000001192 0.0000000000 0.0000000000
C  2.1901600361 0.0000000000 0.0000000000
C  3.6341602802 0.0000000000 0.0000000000
C  4.1340804100 -0.7073800564 -1.1553500891
N  4.5325703621 -1.2712301016 -2.0762701035
C  4.1161804199 1.3611700535 0.0000000000
N  4.5003900528 2.4461600780 0.0000000000
H  -0.0653200075 0.0032500003 -0.0055400003
H  3.9910802841 -0.5035400391 0.9064800739
