18

C  0.8652400374 -0.1252300143 0.1875300109
C  2.3687303066 -0.0008200001 -0.0433200039
C  2.7789602280 -0.0264500026 -1.5153801441
N  2.2333502769 1.1123901606 -2.2523901463
C  3.0612602234 1.0817700624 0.8054400682
O  3.7425801754 0.0894800127 1.6081501245
C  3.1854302883 -0.9834800959 0.8179900646
H  0.6256100535 -0.1826000065 1.2555100918
H  0.4701400399 -1.0285900831 -0.2896900177
H  0.3263200223 0.7375700474 -0.2178100199
H  2.4435203075 -0.9561300874 -1.9892901182
H  3.8712401390 0.0016400001 -1.6085201502
H  1.2236100435 1.0089200735 -2.3512802124
H  2.6028101444 1.1036500931 -3.2036204338
H  2.4035003185 1.7038500309 1.4204101562
H  3.7780001163 1.7249300480 0.2850300074
H  3.9728701115 -1.5439602137 0.3036700189
H  2.6101000309 -1.6754101515 1.4416601658
