18

C  0.9360001087 -0.0265100021 0.0626700073
C  2.4567201138 -0.0048200004 -0.0364700034
C  3.0292701721 -1.2129900455 -0.7238800526
C  4.0723099709 -0.8905200958 -1.4980200529
C  4.3521599770 0.5795100331 -1.4626601934
C  3.0600402355 1.1707701683 -0.8556100726
N  2.1714701653 1.6762201786 -1.9169301987
H  0.5616100430 0.9098500609 0.4883900285
H  0.6085800529 -0.8441400528 0.7141700983
H  0.4590800405 -0.1801200211 -0.9111400843
H  2.8615601063 0.0287800021 0.9841300845
H  2.6743700504 -2.2219402790 -0.5603100061
H  4.6703004837 -1.6000701189 -2.0514402390
H  5.2178106308 0.7810400724 -0.8222300410
H  4.5663905144 0.9715300202 -2.4622101784
H  3.2959704399 2.0130302906 -0.1955600232
H  1.9449201822 0.9031800628 -2.5443000793
H  2.6753802299 2.3560302258 -2.4846401215
