18

N  0.9934900403 0.0003200000 0.1178200096
C  2.4594802856 -0.0026200004 0.0124500003
C  2.9262301922 -1.3605901003 -0.5188400745
C  2.6134600639 -1.5170401335 -2.0055601597
C  3.1351602077 -0.3210300207 -2.7925000191
O  2.6171002388 0.9055300355 -2.2841000557
C  2.9687004089 1.1208500862 -0.9156200886
H  0.6630800366 0.9276201129 0.3795100152
H  0.6944500804 -0.6435300708 0.8475700617
H  2.8665101528 0.1588200182 1.0173300505
H  2.4750602245 -2.1831102371 0.0486700013
H  4.0110802650 -1.4430701733 -0.3749000132
H  3.0563201904 -2.4430301189 -2.3886902332
H  1.5275300741 -1.5935600996 -2.1399102211
H  4.2308502197 -0.2851099968 -2.7740802765
H  2.8278400898 -0.4043300152 -3.8402402401
H  4.0598101616 1.2076799870 -0.8425500393
H  2.5503902435 2.0870602131 -0.6116400361
