17

N  1.0509800911 -0.1381500065 -0.0981600061
C  2.5171601772 -0.0749000013 -0.0206100009
C  3.3352901936 -0.7143200040 -1.1224900484
N  2.6452500820 -1.3730900288 -2.2393200397
C  3.2590501308 0.7849800587 -1.0093600750
C  4.4603705406 1.5588401556 -0.5861000419
O  5.2363505363 1.8912001848 -1.7288501263
H  0.6337400079 0.6611700058 0.3787500262
H  0.7043200731 -0.9666301012 0.3847000301
H  2.9239602089 -0.1410900205 0.9862800837
H  4.2671704292 -1.1911200285 -0.8276300430
H  1.7196401358 -0.9405500889 -2.3283700943
H  2.4388701916 -2.3409302235 -1.9942501783
H  2.6753101349 1.3325400352 -1.7406101227
H  5.0937299728 0.9978200793 0.1091500074
H  4.1596002579 2.4903903008 -0.0968600065
H  5.2805104256 1.0931801796 -2.2853102684
