12

C  0.9529200792 -0.0888300017 -0.0058500003
C  2.4109702110 0.0955100060 -0.0031900003
C  3.2617404461 1.1721501350 -0.0034700001
O  2.8743102551 2.4490001202 -0.0066300007
N  4.5621705055 0.7739200592 -0.0001900000
C  4.4633302689 -0.5378600359 0.0019200002
O  3.1915602684 -1.0309400558 0.0002600000
H  0.4316700399 0.8731700778 0.0029900002
H  0.6362100244 -0.6545200348 0.8757300377
H  0.6376300454 -0.6376400590 -0.8985200524
H  3.6920602322 2.9761703014 -0.0060000005
H  5.2615103722 -1.2674201727 0.0047900006
