16

C  1.3943201303 -0.1217900068 -0.2384700179
N  2.7618603706 -0.1774500161 0.2566100061
C  3.5104603767 1.0221500397 -0.1300500184
C  4.9475903511 0.9578400850 0.3424700499
C  5.4332304001 1.8022201061 1.2675001621
C  5.8346705437 -0.0001100000 -0.2394200265
C  6.5756702423 -0.8111000657 -0.7256100178
H  0.8653200269 -1.0358101130 0.0489300042
H  1.3630300760 -0.0451000035 -1.3302700520
H  0.8507800698 0.7233000398 0.1960900128
H  3.2300102711 -0.9916700721 -0.1409700215
H  3.0176403522 1.9075301886 0.2914200425
H  3.5050504208 1.1417901516 -1.2213401794
H  4.8024201393 2.5515501499 1.7342001200
H  6.4685006142 1.7571600676 1.5918802023
H  7.2344708443 -1.5322901011 -1.1498600245
