11

C  0.9107200503 0.0255700015 -0.0048700003
C  2.1114101410 0.0320000015 -0.0018000001
C  3.5404903889 0.0378700048 0.0018300002
C  4.2859301567 1.1957100630 0.0029000002
S  5.9690608978 0.8768200278 0.0074400003
C  5.7029304504 -0.8143801093 0.0080200005
C  4.3604602814 -1.1268801689 0.0047900006
H  -0.1537500173 0.0197200011 -0.0075500007
H  3.9304401875 2.2171101570 0.0011400002
H  6.5421905518 -1.4961202145 0.0107000005
H  3.9879302979 -2.1438000202 0.0045500007
