15

C  1.0759100914 -0.0774700046 0.1368600130
C  2.5847501755 0.0024900001 0.0052400008
C  3.1919603348 1.1978200674 0.7394300103
N  4.4271607399 0.6215200424 1.1929000616
C  4.2882905006 -0.7191000581 1.2909501791
N  5.0089502335 -1.5369901657 1.9531000853
O  3.1885302067 -1.1536101103 0.6240200400
H  0.6974800825 -0.9718601108 -0.3696600497
H  0.5934100151 0.8026800752 -0.2983800173
H  0.7749100327 -0.1629700214 1.1868101358
H  2.8740901947 -0.0000200000 -1.0524700880
H  2.5863902569 1.5045400858 1.5992101431
H  3.3432302475 2.0581800938 0.0821400061
H  4.9373502731 1.0496201515 1.9548001289
H  4.5956807137 -2.4648203850 1.8101000786
