19

C  1.7243200541 -0.5456300378 -1.1532800198
C  2.4111301899 0.0393600054 0.0715000033
C  3.2490301132 1.2754100561 -0.2672700286
C  4.4553003311 0.9859700799 -1.1556301117
C  2.4565200806 2.5460500717 -0.6433400512
C  3.0791702271 3.1531102657 0.6073099971
O  3.7028102875 1.9002101421 0.9678100348
H  1.0914100409 -1.3901500702 -0.8621500731
H  2.4520499706 -0.9114600420 -1.8835501671
H  1.0919100046 0.1965800226 -1.6503101587
H  3.0443804264 -0.7288300395 0.5310800076
H  1.6449700594 0.2975100279 0.8130201101
H  5.1011805534 1.8647501469 -1.2492901087
H  4.1441302299 0.7004700899 -2.1662900448
H  5.0608401299 0.1725900024 -0.7420900464
H  1.3670600653 2.4584701061 -0.6002800465
H  2.7452702522 3.0299303532 -1.5803101063
H  3.8255002499 3.9322402477 0.4286600351
H  2.3687701225 3.4840803146 1.3697100878
