13

N  1.1145801544 0.1265400201 0.4062700272
N  2.3930802345 0.0499400012 -0.0341100022
C  3.0006902218 1.1869000196 -0.2047600150
C  4.4325103760 1.2787201405 -0.6645300984
C  4.5735702515 2.7472300529 -0.6964600682
C  3.4236702919 3.2870602608 -0.3200600147
O  2.4074201584 2.4107501507 -0.0031900003
H  0.5933200717 -0.7135500312 0.1560800076
H  0.6139200330 0.9388100505 0.0412600040
H  4.5479602814 0.8294600248 -1.6533801556
H  5.1003003120 0.8132800460 0.0634300038
H  5.4662003517 3.2860801220 -0.9758000374
H  3.1673700809 4.3293299675 -0.2241100222
