15

O  2.3290801048 -0.7997100353 1.2802201509
C  2.1530201435 -0.2034000158 -0.0004100000
C  2.7079801559 1.2084400654 0.0175800025
C  4.2086300850 1.1507900953 0.0492600054
N  4.9066305161 1.5790801048 -0.9530600905
N  6.2657003403 1.4200100899 -0.7036800385
C  6.9661202431 1.9169801474 -1.6663302183
H  1.9805800915 -1.7068201303 1.2232201099
H  1.0802401304 -0.1813500077 -0.2146500200
H  2.6536302567 -0.8265500665 -0.7490100265
H  2.3781900406 1.7482000589 0.9111000896
H  2.3860602379 1.7546401024 -0.8745400310
H  4.6781902313 0.7236500382 0.9543401003
H  8.0652208328 1.8726801872 -1.6229500771
H  6.5182905197 2.3971703053 -2.5526101589
