18

C  0.8221900463 0.2426100224 0.0104000010
C  2.3508701324 0.0387100019 0.0137900012
C  2.7324004173 -0.7521800995 1.2789300680
C  2.7345001698 -0.7781300545 -1.2340900898
C  3.0273902416 1.4328200817 0.0000000000
C  4.4707603455 1.3904501200 0.0009200001
N  5.6212801933 1.3566900492 0.0016600002
H  0.4987800121 0.7916100621 -0.8807600737
H  0.4973000288 0.8101300597 0.8893200159
H  0.2930400372 -0.7169900537 0.0199800022
H  2.4866201878 -0.1879600137 2.1853101254
H  3.8026704788 -0.9821800590 1.3059201241
H  2.1934201717 -1.7056500912 1.3248200417
H  2.4905402660 -0.2326300144 -2.1523799896
H  2.1953501701 -1.7321001291 -1.2612600327
H  3.8047702312 -1.0089300871 -1.2543801069
H  2.6868803501 2.0087902546 0.8702500463
H  2.6875700951 1.9910900593 -0.8819800615
