12

C  0.7846700549 0.1954900175 -0.0439500026
C  2.1025102139 -0.0375200026 -0.0612500049
N  2.7068102360 -1.2692800760 -0.1186300069
C  2.1435601711 -2.5097904205 -0.1701200157
O  2.8010301590 -3.5410802364 -0.2190400213
C  3.0259003639 1.1388500929 -0.0145800011
O  4.2448501587 1.0009400845 -0.0272300020
H  0.3833600283 1.2040901184 0.0025300002
H  0.0459700003 -0.5968700647 -0.0748000070
H  3.7265102863 -1.2648200989 -0.1239200085
H  1.0441300869 -2.5233001709 -0.1648300141
H  2.5483102798 2.1317303181 0.0316100046
