19

C  1.0200700760 -0.1459300220 -0.1401900202
C  2.5339503288 -0.1161700040 -0.2707500160
C  3.1218101978 1.1819001436 0.2802300155
C  4.6084804535 1.2059199810 0.1233700067
O  5.3036904335 1.9151101112 1.1601201296
C  5.5060400963 0.4971300364 1.1050001383
C  6.8789901733 0.0789700076 0.7180100679
H  0.6251100302 -1.0900900364 -0.5273100138
H  0.5624000430 0.6715800762 -0.7053400874
H  0.7151200771 -0.0540600009 0.9068600535
H  2.8109900951 -0.2349900156 -1.3256801367
H  2.9592304230 -0.9743000865 0.2650400102
H  2.8431103230 1.2936701775 1.3348201513
H  2.6976702213 2.0391802788 -0.2548000216
H  4.9374704361 1.3454000950 -0.8982600570
H  5.0676503181 -0.1184400097 1.8787002563
H  7.3704805374 0.8214700818 0.0818200111
H  6.8424506187 -0.8679701090 0.1718900055
H  7.4943103790 -0.0651400089 1.6105601788
