12

O  1.4360301495 -1.0319701433 0.1142300144
C  2.5608701706 -0.5686000586 -0.0211800020
C  2.7981402874 0.8881600499 0.0469400026
C  4.0369801521 1.3884700537 -0.0720300004
C  4.3505902290 2.8594102859 -0.0085100010
C  5.0172905922 3.3009703159 -1.2427700758
N  5.5516600609 3.6476302147 -2.2135803699
H  3.4450302124 -1.2040600777 -0.1947300136
H  1.9170901775 1.5027201176 0.1963600218
H  4.8869004250 0.7222600579 -0.2154200077
H  5.0061302185 3.0415501595 0.8505300879
H  3.4408302307 3.4495902061 0.1507900059
