18

C  0.9787100554 0.0793800056 0.1843200177
C  2.4718902111 -0.1013200060 -0.0749700069
C  2.7922804356 -0.0617900044 -1.5680600405
O  3.2277202606 0.9496000409 0.6048500538
C  4.0958800316 -0.0441500023 1.2168800831
C  3.1197001934 -1.1710901260 0.8534801006
N  3.8065803051 -2.2393701077 0.1160900071
H  0.7635300756 0.1611400098 1.2552701235
H  0.4126500189 -0.7724900246 -0.2076500207
H  0.6015500426 0.9879000187 -0.2973500490
H  3.8720002174 -0.0654000044 -1.7522101402
H  2.3914201260 0.8481100202 -2.0284202099
H  2.3542501926 -0.9212000966 -2.0857400894
H  5.0789704323 -0.0473700017 0.7339000702
H  4.2172904015 0.1347399950 2.2888700962
H  2.5044400692 -1.5183300972 1.6885201931
H  4.4585804939 -1.9237000942 -0.6010400057
H  3.1724503040 -2.8931803703 -0.3423300385
