13

N  0.9657900929 0.0320500024 -0.0811700076
C  2.3129501343 -0.0028400002 -0.0417700000
C  3.1646502018 1.0749900341 -0.0665500015
O  4.4591703415 0.6551200747 0.0074800006
C  4.4273805618 -0.7060700655 0.0756300092
C  3.1288702488 -1.1528900862 0.0411600024
N  2.7165601254 -2.4371700287 0.0724100024
H  0.4716200233 0.9035700560 0.0854900032
H  0.4444400072 -0.7802200317 0.2328900099
H  3.0262300968 2.1445100307 -0.1245800033
H  5.3906402588 -1.1898900270 0.1372900158
H  1.7796201706 -2.6588602066 -0.2480500191
H  3.3767502308 -3.1901602745 -0.0937100053
