14

O  0.9186701179 1.3202300072 0.7920800447
N  2.2370402813 1.7367101908 0.5684600472
C  2.9611203671 0.7046500444 0.2694500089
C  4.4243602753 0.7716700435 -0.0315300003
C  5.0337800980 -0.3989400268 -0.2762100399
C  5.1143407822 2.0459201336 0.0396200046
C  6.1740102768 2.4066102505 -0.6970100403
H  0.4678600430 2.1605300903 0.9978800416
H  2.5064902306 -0.3023200333 0.2257800102
H  4.4959702492 -1.3416600227 -0.2934000194
H  6.1024007797 -0.4553100467 -0.4591200352
H  4.6972804070 2.7676701546 0.7410800457
H  6.6216506958 1.7503601313 -1.4356200695
H  6.6100506783 3.3938903809 -0.5806200504
