16

C  0.9734501243 -0.0046200003 0.1753400117
C  2.4730403423 0.0281600021 -0.0411200039
C  3.2694702148 1.0479201078 0.8003800511
N  4.2120604515 -0.0292800032 1.0309400558
C  3.2940902710 -1.0821200609 0.6485800743
C  5.2943601608 -0.0611300059 1.8534802198
O  5.8323402405 0.9156000614 2.3580203056
H  0.5291500092 -0.8601200581 -0.3427800238
H  0.5087100267 0.9049700499 -0.2176600248
H  0.7200200558 -0.0828200057 1.2375400066
H  2.7074100971 0.1071300060 -1.1129701138
H  2.7908203602 1.3963900805 1.7200601101
H  3.6846501827 1.8898900747 0.2415000200
H  3.7270202637 -1.8271402121 -0.0230600033
H  2.8252604008 -1.5684601068 1.5091601610
H  5.6560907364 -1.0872900486 2.0308802128
