17

C  1.0713599920 0.0037000002 -0.0291100014
C  2.5866904259 0.0181600004 -0.0223800018
O  3.0666301250 1.0669201612 0.8242400885
C  4.3736205101 0.6329400539 1.2103600502
O  4.5348100662 -0.7623700500 0.9349500537
C  3.2217702866 -1.2153500319 0.5886400342
C  3.3140702248 -2.3999302387 -0.3519200385
H  0.6808900237 -0.8029100299 -0.6557900906
H  0.6848200560 0.9572100639 -0.4060800374
H  0.6741100550 -0.1135700047 0.9848001003
H  2.9697203636 0.2097200155 -1.0325000286
H  5.1249604225 1.1944199800 0.6459300518
H  4.5148706436 0.8166100383 2.2790603638
H  2.7189300060 -1.5062700510 1.5191800594
H  3.9012501240 -2.1490800381 -1.2432100773
H  2.3242301941 -2.7419703007 -0.6672000289
H  3.8320102692 -3.2324302197 0.1362300068
