15

N  0.9080800414 -0.0636600032 0.2296300232
C  2.2518601418 0.0222400017 0.0099400012
N  2.9046401978 -1.0536000729 -0.3086100221
C  3.0169103146 1.3041101694 0.1270700097
C  2.3676803112 2.4777300358 0.0476300046
C  4.5031905174 1.1961400509 0.3270400465
O  5.1157202721 0.5521500707 -0.7838800550
H  0.5119700432 0.6598200798 0.8193600178
H  0.5477500558 -0.9808300734 0.4602800310
H  2.2474400997 -1.8334200382 -0.3904300332
H  1.3020302057 2.5466103554 -0.1373000145
H  2.9097001553 3.4163401127 0.1168600097
H  4.7290005684 0.6226000190 1.2327500582
H  4.9693202972 2.1806402206 0.4375800490
H  4.5887007713 -0.2692399919 -0.9080200791
