19

C  2.2956402302 -1.0147800446 1.3209201097
C  2.4620003700 -0.2772700191 -0.0005900000
C  3.0458102226 1.1233900785 0.1733600199
N  4.4129004478 1.0164600611 0.6898700595
C  4.9776806831 2.1577603817 0.8524400592
N  6.2413301468 2.2873101234 1.3331000805
C  6.7223305702 3.4925203323 1.9562801123
H  1.8272300959 -1.9890501499 1.1514700651
H  1.6618101597 -0.4480500221 2.0092000961
H  3.2616903782 -1.1872401237 1.8044800758
H  1.4807502031 -0.1944500059 -0.4840200245
H  3.1017301083 -0.8697201014 -0.6659900546
H  2.4171199799 1.7048201561 0.8587700725
H  3.0500104427 1.6263802052 -0.8013100624
H  4.4868803024 3.1212100983 0.6212300658
H  6.6199903488 1.4139101505 1.6871601343
H  6.5842204094 4.3545703888 1.2969801426
H  7.7898802757 3.3982403278 2.1746501923
H  6.1927304268 3.6766901016 2.8960204124
