15

C  1.3316500187 -0.7390000820 0.8316900730
C  2.1597201824 -0.2028200179 -0.0747300014
C  2.5248501301 1.2473100424 -0.1409200132
O  3.9400603771 1.3456100225 0.0645100027
N  4.2655200958 2.7082002163 0.0332200006
C  4.6429204941 3.2005302906 1.2525401115
N  4.4175901413 2.6800701618 2.4073703289
H  1.1134899855 -1.8028901815 0.8231900334
H  0.8643301129 -0.1387100071 1.6067701578
H  2.6115803719 -0.8471800685 -0.8250700235
H  1.9942102432 1.8259601593 0.6248700619
H  2.2682902813 1.6432400942 -1.1303300858
H  4.8747801781 2.9555504322 -0.7436500788
H  5.1763305664 4.1624703407 1.1747300625
H  3.9313802719 1.7902401686 2.2402303219
