16

C  2.4722301960 -0.3325600028 1.7235901356
C  2.2076599598 0.3148100078 0.3720500171
N  3.0210101604 1.5139200687 0.1662000120
C  2.6216800213 2.7693202496 0.5984300375
C  1.4863001108 3.0635201931 1.2404301167
C  4.2649803162 1.3425800800 -0.4401000440
O  4.7460303307 0.2829000354 -0.8260700703
H  1.8645001650 -1.2355899811 1.8370500803
H  2.2288901806 0.3476400375 2.5458400249
H  3.5254402161 -0.6145100594 1.8249602318
H  1.1458501816 0.5554600358 0.2538000345
H  2.4383003712 -0.4127800465 -0.4155400395
H  3.3150203228 3.5831801891 0.3891300261
H  0.7368600368 2.3273100853 1.5035400391
H  1.2794400454 4.0888905525 1.5332301855
H  4.8213801384 2.2887001038 -0.5512200594
