19

C  1.4614200592 -0.1647300124 1.3131501675
C  2.9031002522 -0.2289600223 0.8453000784
C  3.1088104248 0.7089000940 -0.3110500276
N  3.8734302521 1.7460001707 -0.1891900152
N  3.9375402927 2.4888801575 -1.3266600370
C  2.9444804192 3.5718102455 -1.4157701731
C  5.2670102119 3.0608303547 -1.5818300247
H  1.3005801439 -0.8506600261 2.1502201557
H  0.7736900449 -0.4396500587 0.5067700148
H  1.2008500099 0.8467800617 1.6413501501
H  3.1433401108 -1.2416901588 0.5071600676
H  3.5800604820 0.0348500013 1.6642000675
H  2.5740003586 0.4710200429 -1.2489700317
H  1.9312500954 3.1676900387 -1.3096899986
H  2.9878401756 4.0656304359 -2.3929102421
H  3.0949201584 4.3217000961 -0.6310800910
H  6.0205807686 2.2654900551 -1.5970801115
H  5.5515904427 3.7846002579 -0.8092900515
H  5.3039803505 3.5531103611 -2.5604901314
