18

C  0.9231401086 0.0331400037 -0.1497300118
C  2.4214200974 0.0203600023 0.0375300013
N  2.8615901470 -0.0849400088 1.4375000000
C  3.2615902424 -0.6613000631 -1.0189300776
C  3.2348501682 0.8432200551 -0.9406900406
C  4.4443502426 1.6126601696 -0.5345900655
O  5.2476606369 1.8446000814 -1.6863200665
H  0.6413200498 0.1037300080 -1.2062301636
H  0.4815200269 0.8882300854 0.3732900023
H  0.4800400436 -0.8843600750 0.2525300086
H  3.8317902088 -0.3871300519 1.5102200508
H  2.3212902546 -0.7969100475 1.9303802252
H  2.7574803829 -1.1296501160 -1.8577201366
H  4.1632905006 -1.1811201572 -0.7167700529
H  2.6907601357 1.3780201674 -1.7134701014
H  5.0591306686 1.0909500122 0.2054900080
H  4.1562805176 2.5835201740 -0.1201900095
H  5.4574303627 0.9716100693 -2.0582101345
