9

C  0.9609701037 -0.0546000041 -0.0013400001
C  2.1600303650 0.0098600006 0.0002700000
C  3.5682501793 0.0892399997 0.0022200001
C  4.4529800415 1.1242901087 0.0006400000
N  5.7161607742 0.6060300469 0.0041400003
N  5.6377506256 -0.7234500647 0.0078600002
O  4.2793502808 -1.0649501085 0.0066900006
H  -0.1027100012 -0.1156100109 -0.0027200002
H  4.2662005424 2.1864199638 -0.0027200002
