17

C  0.9822500944 0.0090200007 0.0066100000
C  2.5200002193 0.0000000000 0.0000000000
C  3.0236303806 -0.7240300775 1.2605800629
C  3.0039303303 -0.7372900844 -1.2720201015
O  4.4178204536 -0.9334900975 -1.2907401323
C  3.0020201206 1.3611700535 0.0000000000
C  3.3993003368 2.4830701351 0.0000000000
H  0.5812200308 0.5155200362 -0.8804000616
H  0.5878100395 0.5333000422 0.8861500621
H  0.5785400271 -1.0103800297 0.0190600026
H  2.6462302208 -0.2443100065 2.1712801456
H  4.1176104546 -0.7165200710 1.3237600327
H  2.6937401295 -1.7684901953 1.2730300426
H  2.7294402122 -0.1902400255 -2.1823003292
H  2.5458700657 -1.7309001684 -1.3363500834
H  4.8288903236 -0.0533800051 -1.2215001583
H  3.7511801720 3.4894201756 0.0054200008
