22

C  0.9416400790 1.4865300655 0.9804800749
C  2.4273302555 1.7667701244 1.1587001085
C  3.2400903702 1.2311301231 -0.0269200020
C  4.7677206993 1.4721201658 0.0529000051
C  5.3866505623 0.8005800843 1.2865101099
C  5.4314303398 0.9060201049 -1.2141200304
N  5.0463404655 2.9115300179 0.1208800077
H  0.3785400093 1.8703300953 1.8370001316
H  0.7520200610 0.4111100435 0.9042000771
H  0.5564700365 1.9692901373 0.0766100064
H  2.7572903633 1.2977100611 2.0919001102
H  2.5718100071 2.8470301628 1.2648801804
H  2.8504300117 1.6852701902 -0.9490500689
H  3.0544703007 0.1525900215 -0.1187800094
H  5.0237803459 1.2422200441 2.2209300995
H  6.4789605141 0.8980900645 1.2879800797
H  5.1513600349 -0.2695100307 1.3089401722
H  5.0392904282 1.3833600283 -2.1198301315
H  5.2511601448 -0.1714800149 -1.3030301332
H  6.5171403885 1.0588001013 -1.2021900415
H  4.6887402534 3.3733603954 -0.7146100402
H  6.0532007217 3.0714502335 0.1250100136
