17

N  2.3556501865 -0.4849500358 -1.4455801249
C  2.2936203480 0.1114500090 -0.1100700051
C  3.4838404655 1.0419100523 0.1676499993
O  3.4287703037 2.2677803040 -0.6234000325
C  3.0235602856 3.0251002312 0.5476900339
C  3.3871901035 1.8574302197 1.4782301188
N  4.7313303947 2.0754101276 2.0419001579
H  1.5781000853 -1.1300500631 -1.5708900690
H  3.2101602554 -1.0285600424 -1.5490400791
H  2.2825400829 -0.6931900382 0.6334500313
H  1.3489800692 0.6580600142 -0.0140800010
H  4.4415302277 0.5256200433 0.0188500006
H  3.5969402790 3.9508302212 0.6557200551
H  1.9562602043 3.2664902210 0.5029700398
H  2.6230101585 1.5603600740 2.1995902061
H  5.4040403366 2.4250800610 1.3551201820
H  5.1549501419 1.2376900911 2.4383003712
