16

C  2.0582301617 -0.6267400384 -1.2017201185
C  2.1488401890 0.3004500270 -0.2378700078
C  3.2861902714 1.1906801462 0.0035100002
N  3.7344005108 2.0521202087 -1.0856900215
C  3.0545003414 2.6862001419 0.0371900015
C  3.8748202324 3.5131404400 0.9210800529
C  3.5849802494 3.8274703026 2.1906502247
H  1.1761500835 -1.2514500618 -1.2954001427
H  2.8667101860 -0.7809600830 -1.9099801779
H  1.3135100603 0.3980200291 0.4532700479
H  4.0723605156 0.7790901065 0.6287900209
H  3.1044502258 1.9716900587 -1.8840900660
H  2.0623600483 3.0728101730 -0.1727700084
H  4.7975001335 3.9075002670 0.4969400167
H  2.6803002357 3.4688403606 2.6703600883
H  4.2541403770 4.4525804520 2.7732002735
