18

C  1.0232100487 0.0677400082 -0.1162800044
C  2.5078701973 0.0111800013 -0.0217000023
C  3.3738102913 -0.7046200633 -1.0290400982
N  2.7934200764 -1.3976200819 -2.1776602268
C  3.4195203781 0.8122200370 -0.9275000691
C  2.9017202854 1.6964601278 -2.0161702633
O  4.5572304726 1.3809500933 -0.2517400086
H  0.6441600323 0.8861700892 0.5044400096
H  0.5925400257 -0.8655400872 0.2608700097
H  0.6513800621 0.2202200145 -1.1321301460
H  2.8079702854 -0.0729500055 1.0189200640
H  4.2300205231 -1.2358599901 -0.6174499989
H  1.9926501513 -0.9026600718 -2.5647101402
H  2.4397802353 -2.3174803257 -1.8994301558
H  2.0353200436 1.2853901386 -2.5427300930
H  3.6868901253 1.8678801060 -2.7616503239
H  2.6095101833 2.6682302952 -1.6045401096
H  5.2538008690 0.7220200300 -0.0961400047
