15

C  1.0000001192 0.0000000000 0.0000000000
C  2.1901600361 0.0000000000 0.0000000000
C  3.5961604118 0.0000000000 0.0000000000
C  4.3459806442 -1.1046100855 -0.0733200088
C  5.8032102585 -0.7824000716 -0.0557100065
C  5.8193006516 0.7231300473 -0.3201200068
C  4.4365901947 1.2351200581 0.0809400007
H  -0.0649000034 -0.0019000001 -0.0001700000
H  3.9624602795 -2.1141800880 -0.1231200099
H  6.2360105515 -1.0255900621 0.9207300544
H  6.3516006470 -1.3236200809 -0.8327100873
H  5.9853806496 0.9083900452 -1.3891701698
H  6.6219606400 1.2304301262 0.2241800129
H  4.0971002579 2.0206401348 -0.6016300321
H  4.4402503967 1.6294001341 1.1034001112
