15

C  2.3997702599 -0.5690900087 1.4286400080
C  2.5540101528 -0.0586300045 0.0090200007
C  2.9738001823 1.3893001080 0.0051800003
O  2.1826503277 2.3237903118 0.0460000001
C  4.3971605301 1.6532201767 0.0000000000
C  5.5673904419 1.8701100349 0.0000000000
C  6.9872107506 2.1332602501 0.0000000000
H  2.0714001656 -1.6125801802 1.4253400564
H  1.6611201763 0.0218700022 1.9797101021
H  3.3469102383 -0.5094800591 1.9741901159
H  1.6037001610 -0.1408600211 -0.5310000181
H  3.2879502773 -0.6590900421 -0.5401600599
H  7.1886606216 3.2088000774 -0.0132000009
H  7.4697504044 1.6919001341 -0.8774500489
H  7.4655408859 1.7143900394 0.8906900883
