18

N  0.8672800660 0.0983800068 -0.2271100134
C  2.3128201962 -0.0657900050 -0.2808200419
C  3.0066301823 1.2048400640 0.2078700215
C  4.5174603462 1.0247700214 0.1739200205
C  5.2044000626 1.0797801018 -1.1971300840
O  6.1299600601 2.0916101933 -0.7329500318
C  5.3479404449 2.2797901630 0.4709300101
H  0.4153900146 -0.7432700992 -0.5820100307
H  0.5796800256 0.8573400974 -0.8441900611
H  2.6170504093 -0.2982300222 -1.3065100908
H  2.6022102833 -0.9158800840 0.3458200097
H  2.6912302971 1.4263800383 1.2358599901
H  2.7067101002 2.0606501102 -0.4108800292
H  4.8456101418 0.1677500159 0.7761300802
H  4.6010999680 1.4534001350 -2.0300002098
H  5.7203307152 0.1631700099 -1.4956500530
H  5.9674005508 2.2251303196 1.3702501059
H  4.8144602776 3.2351102829 0.4468700290
