16

N  1.0860700607 -0.1478800178 -0.0490800031
C  2.5013000965 0.1283700019 0.0024600003
C  3.3306100368 -0.6123800278 -1.0838999748
C  4.4206900597 -0.2714700103 0.0107300002
C  3.2887301445 -0.7712700963 0.9964600801
O  4.4842004776 1.1821500063 0.1267200112
C  3.0832302570 1.5332701206 0.1140500158
H  0.5676200390 0.1997000128 0.7569300532
H  0.8491200805 -1.1362600327 -0.1283300072
H  3.4436101913 -0.1015300080 -2.0443000793
H  3.1264901161 -1.6744700670 -1.2581901550
H  5.3856902122 -0.7760100961 -0.0078800004
H  3.0807902813 -1.8468201160 0.9991000891
H  3.3606402874 -0.4117900431 2.0266301632
H  2.8678803444 2.1627902985 -0.7532800436
H  2.8214702606 2.0371100903 1.0480201244
