11

C  1.3666501045 -0.4588500261 0.2748800218
N  2.6406002045 -0.6360900402 0.3762800097
N  3.3940701485 0.4811700284 0.1676800251
C  4.7713603973 0.4798900187 0.2354100198
O  5.4254102707 1.5006101131 0.0431900024
C  5.4548101425 -0.7585200667 0.5409200788
C  6.0299706459 -1.7829501629 0.7941100597
H  0.6863700151 -1.3114701509 0.4289300442
H  0.8987900615 0.5120000243 0.0385700017
H  2.9605503082 1.3707101345 -0.0489900038
H  6.5378003120 -2.6914701462 1.0185400248
