20

C  0.9989300966 -0.0065800003 -0.1759500057
C  2.5162203312 0.0076700007 -0.0682300031
N  3.0018601418 1.3867400885 -0.0705900043
C  4.4563102722 1.4260501862 0.0455200039
C  4.9115004539 2.8529500961 0.0378600061
C  5.5970005989 3.4358501434 1.0350000858
C  6.0571203232 4.8566102982 1.0124300718
H  0.6319100857 -1.0377200842 -0.1765100062
H  0.6634500027 0.4713800251 -1.1023501158
H  0.5354500413 0.5153700709 0.6678000093
H  2.9375600815 -0.5446800590 -0.9158300161
H  2.8138501644 -0.5038900375 0.8544900417
H  2.5996701717 1.8886901140 0.7202700973
H  4.9186801910 0.9140200615 -0.8060900569
H  4.7837805748 0.9188401103 0.9611200690
H  4.6634602547 3.4252002239 -0.8543300629
H  5.8462905884 2.8641800880 1.9261602163
H  5.8124203682 5.3569803238 0.0700099990
H  7.1421704292 4.8978605270 1.1476000547
H  5.5872006416 5.4137606621 1.8287101984
