19

C  1.2682300806 0.4949700534 1.5546400547
C  2.6745500565 0.5513800383 1.0530900955
C  3.0916402340 1.3971600533 0.0985900089
C  4.4982800484 1.4597901106 -0.4286500514
C  5.1728205681 2.7771902084 -0.1749300212
C  6.1400108337 3.3437201977 -1.1834000349
C  4.8032302856 3.9999504089 -0.9762700796
H  0.8577300310 -0.5073800683 1.3993101120
H  0.6176700592 1.2120500803 1.0435900688
H  1.2446501255 0.7156900764 2.6259601116
H  3.3770904541 -0.1454600245 1.5050201416
H  2.3849999905 2.0910301208 -0.3525500298
H  4.4636001587 1.2499301434 -1.5050801039
H  5.1125202179 0.6676400304 0.0176000018
H  5.4019002914 2.9168100357 0.8764400482
H  6.3007907867 2.8096401691 -2.1131401062
H  7.0194802284 3.8565704823 -0.8112900257
H  4.7773704529 4.9520201683 -0.4584000409
H  4.0616402626 3.9027101994 -1.7607301474
