16

C  0.7551800609 1.0588700771 -0.4973800182
N  -0.4153800309 0.4007500410 0.0757100061
C  0.8010600805 -0.3846800327 -0.0764500052
C  1.5542801619 -0.8706500530 1.1315500736
C  1.3318099976 -0.2894900143 2.5373501778
O  1.3838801384 -1.6214901209 3.1210904121
C  1.1505800486 -2.1914601326 1.8069201708
H  0.7138100863 1.2928701639 -1.5536401272
H  1.2349400520 1.8011301756 0.1285000145
H  -1.0974600315 0.1724800020 -0.6514800787
H  0.8092400432 -1.1412301064 -0.8538100719
H  2.6255402565 -0.8780700564 0.8796400428
H  0.3645600080 0.1828400046 2.7359201908
H  2.1374402046 0.3503700197 2.9089202881
H  1.8105201721 -3.0393903255 1.6040900946
H  0.1057900116 -2.4962401390 1.6878001690
