21

C  1.7417302132 -0.4739500582 1.2140600681
C  2.6338102818 -0.1761800051 0.0190200023
C  3.0124902725 1.2755100727 -0.0365800038
C  4.2736401558 1.7258602381 0.0514800027
C  4.6522402763 3.1848502159 -0.0186200012
C  5.3180003166 3.6224701405 1.2851901054
C  5.5815005302 3.4320402145 -1.2063901424
H  1.4555500746 -1.5302401781 1.2171100378
H  0.8252200484 0.1241900101 1.1845101118
H  2.2587702274 -0.2604800165 2.1552500725
H  2.1041600704 -0.4357900321 -0.9049700499
H  3.5248701572 -0.8137100935 0.0656700060
H  2.1955502033 1.9832501411 -0.1688800156
H  5.0886902809 1.0145500898 0.1797300130
H  3.7521002293 3.7966401577 -0.1606400013
H  6.2409105301 3.0623402596 1.4751400948
H  4.6485204697 3.4675002098 2.1389300823
H  5.5727605820 4.6875004768 1.2510300875
H  6.5143203735 2.8639202118 -1.1138700247
H  5.8410606384 4.4937500954 -1.2806200981
H  5.1016902924 3.1397902966 -2.1473102570
