20

C  1.6646300554 -0.4824800491 -1.0395400524
N  2.2698502541 0.0737100095 0.1642500162
C  3.1395001411 1.2233000994 -0.1262300014
C  4.3503799438 0.9129601121 -0.9877800345
C  2.2728500366 2.4700701237 -0.4581600428
C  3.1264102459 3.2569804192 0.5590500832
C  3.4469602108 1.9087201357 1.2393501997
H  0.9325200319 -1.2444101572 -0.7521500587
H  2.4068400860 -0.9677700400 -1.6808601618
H  1.1298999786 0.2750100493 -1.6214101315
H  2.7372200489 -0.6735200882 0.6770300865
H  5.0213904381 1.7758201361 -1.0601900816
H  4.0606403351 0.6496000886 -2.0103902817
H  4.9303803444 0.0815500095 -0.5718300343
H  1.2165601254 2.4109601974 -0.1670700014
H  2.3293902874 2.8334701061 -1.4883700609
H  3.9998803139 3.7498302460 0.1173600107
H  2.5847201347 3.9809803963 1.1732400656
H  4.4705801010 1.8097001314 1.6122500896
H  2.7568602562 1.6757800579 2.0602900982
