17

O  1.9213200808 -0.2195200175 -1.3365001678
C  2.3704602718 0.1287200004 -0.0317400023
C  3.1080601215 1.4641201496 -0.0509900041
C  2.2554700375 2.6292202473 -0.5272900462
C  2.9559900761 3.7964801788 0.1225600094
C  3.3540604115 3.2174203396 1.4640201330
O  3.5577304363 1.8091400862 1.2716301680
H  1.4901801348 -1.0884599686 -1.2609500885
H  3.0331702232 -0.6612900496 0.3376700282
H  1.5076100826 0.1708200127 0.6421100497
H  3.9952802658 1.3819900751 -0.6908100843
H  1.2320901155 2.5522801876 -0.1395800114
H  2.2059299946 2.7063901424 -1.6169201136
H  3.8521101475 4.0588002205 -0.4524300396
H  2.3332302570 4.6904702187 0.2113600075
H  4.2659301758 3.6709601879 1.8621802330
H  2.5530502796 3.3394300938 2.2005200386
