19

C  3.3804402351 -1.0260601044 -0.5980300307
C  3.2748303413 -0.1925600171 0.6730300188
C  3.3662903309 1.3178000450 0.4070100486
C  3.1066303253 2.1019201279 1.7018800974
C  3.0728504658 3.6097602844 1.4869700670
C  4.7449603081 1.6547901630 -0.1223600134
O  4.9367003441 2.1631000042 -1.2232000828
H  3.2497100830 -2.0871400833 -0.3627500534
H  4.3589401245 -0.9086000323 -1.0733200312
H  2.6087200642 -0.7410500646 -1.3196700811
H  4.0639200211 -0.5061600804 1.3682200909
H  2.3156800270 -0.4204700291 1.1540201902
H  2.6251103878 1.6030300856 -0.3491300046
H  3.8740103245 1.8688701391 2.4504601955
H  2.1427602768 1.7943001986 2.1252603531
H  4.0487604141 3.9902203083 1.1689001322
H  2.8071303368 4.1165103912 2.4206502438
H  2.3313901424 3.8834903240 0.7295100689
H  5.5928807259 1.4175200462 0.5441499949
