18

C  0.6104800701 0.3773000240 0.1207900122
N  2.0214800835 0.0540600009 0.2872600257
C  2.8686404228 1.1675201654 -0.1474000067
C  4.3421301842 0.7950500250 0.0438500047
C  5.2876706123 1.9310301542 -0.3488000333
C  5.3016104698 2.1658401489 -1.8012001514
C  5.3148002625 2.3564000130 -2.9864001274
H  0.0015500002 -0.4727500379 0.4437900484
H  0.3665100336 0.5875700712 -0.9256800413
H  0.3271000385 1.2378801107 0.7352500558
H  2.2420301437 -0.7732000351 -0.2674200237
H  2.6414201260 2.0613801479 0.4457700253
H  2.6707901955 1.3978701830 -1.2004801035
H  4.5807104111 -0.1068000123 -0.5350300074
H  4.5163602829 0.5520200729 1.1001100540
H  6.3025002480 1.6729701757 -0.0232100021
H  5.0108103752 2.8515501022 0.1779900044
H  5.3280305862 2.5242700577 -4.0391402245
