19

C  1.3695200682 2.0849502087 2.8314702511
O  2.6360800266 2.5512602329 2.3875403404
C  2.8867001534 2.3106801510 0.9948900938
C  2.0185101032 3.2225003242 0.1284100115
C  4.3762001991 2.5996701717 0.7230600119
C  5.2824106216 1.5807400942 1.3651801348
C  6.1375002861 0.8012400270 0.6926600337
H  1.3536900282 2.1303400993 3.9241502285
H  1.2000800371 1.0483500957 2.5248200893
H  0.5691800117 2.7284801006 2.4558904171
H  2.6713302135 1.2607300282 0.7585500479
H  2.1268603802 4.2695503235 0.4312400222
H  0.9585800767 2.9689602852 0.2297100276
H  2.2797801495 3.1310801506 -0.9306700826
H  4.6427803040 3.5846202374 1.1271201372
H  4.5587606430 2.6280303001 -0.3582200408
H  5.2251200676 1.4997701645 2.4496700764
H  6.2326006889 0.8529101014 -0.3871600330
H  6.7685003281 0.0900900066 1.2179601192
