17

O  2.4687201977 -1.0380700827 1.2521500587
C  1.4712201357 -0.0488100052 1.4500402212
C  1.5882002115 1.0287500620 0.3848000169
C  2.9340102673 1.7473801374 0.4304500520
O  2.9061403275 2.7889001369 -0.5504900217
C  4.0214104652 3.5670404434 -0.6688700318
C  5.1666107178 3.5132000446 0.0209900029
H  2.3014602661 -1.7472201586 1.8965901136
H  1.5915400982 0.3757800162 2.4511301517
H  0.4896500409 -0.5284800529 1.3886301517
H  0.7763900757 1.7583001852 0.5025400519
H  1.4632701874 0.5859700441 -0.6121500731
H  3.7442102432 1.0454300642 0.2033000141
H  3.0854501724 2.1804602146 1.4259800911
H  3.8622202873 4.2988801003 -1.4543001652
H  5.3494105339 2.7914803028 0.8074900508
H  5.9652004242 4.2133803368 -0.2014200240
