16

C  1.0116100311 0.0136100017 -0.0378700048
C  2.5327501297 -0.0521400049 -0.0633900091
C  3.0696203709 -1.2604801655 -0.7941700220
C  3.2998301983 -0.6295100451 -2.1155202389
C  3.5630803108 -1.4487501383 -3.3325004578
N  3.3037302494 0.6630499959 -2.1193501949
O  3.0400102139 1.0772600174 -0.7897000313
H  0.6812500358 0.9342800975 0.4547000229
H  0.5888300538 -0.8409301043 0.4990400374
H  0.5938600898 0.0333900005 -1.0503400564
H  2.9161803722 -0.0128200008 0.9616801143
H  2.3788402081 -2.1044499874 -0.8398900628
H  4.0350904465 -1.5855201483 -0.3945700228
H  3.6970503330 -0.8055800796 -4.2061400414
H  2.7182302475 -2.1205801964 -3.5068302155
H  4.4680299759 -2.0429401398 -3.1802501678
