15

C  0.9921500683 -0.0144100012 0.0231400020
C  2.5071802139 0.0039600004 0.0178200006
C  3.1102702618 1.1112000942 0.8790100813
N  4.4339604378 0.6074200273 1.2856900692
N  4.3055701256 -0.7902800441 1.2303100824
C  3.1227500439 -1.2137300968 0.6485700607
O  2.7086601257 -2.3588502407 0.6104400754
H  0.6137100458 -0.8347300291 -0.5952800512
H  0.5906200409 0.9242000580 -0.3709500134
H  0.5969700217 -0.1598400176 1.0343201160
H  2.8829503059 0.0715600029 -1.0109400749
H  2.5096201897 1.2920701504 1.7789001465
H  3.1936104298 2.0572800636 0.3334600031
H  5.1222805977 0.8811100721 0.5772000551
H  4.8301105499 -1.4193300009 1.8316100836
