17

C  -1.5038601160 0.7915300727 0.1871900111
C  -1.3631401062 -0.6968100667 -0.1465600133
C  -0.0104000010 -1.2281500101 0.2240200192
N  1.0655699968 -1.1352001429 -0.7687300444
C  1.1317601204 -0.2594500184 0.4000300467
C  0.8726800680 1.2164599895 0.2998900414
N  -0.3904800415 1.5675600767 -0.3562500179
H  -2.4418601990 1.1617301702 -0.2410800159
H  -1.5701501369 0.9361000657 1.2726000547
H  -1.5480800867 -0.8612100482 -1.2158000469
H  -2.1344301701 -1.2571500540 0.3952100277
H  -0.0438200049 -2.1318602562 0.8161500692
H  1.7130000591 -1.9180401564 -0.6772700548
H  1.9122102261 -0.4880600274 1.1153200865
H  0.8758900762 1.6384500265 1.3128501177
H  1.6981102228 1.6912000179 -0.2423900217
H  -0.5643500090 2.5622100830 -0.2331300080
