13

O  3.1192803383 -0.9243000746 -0.6231200099
C  2.2865600586 0.0488700047 0.0092100007
C  1.9043000937 -0.3702600300 1.3716701269
N  1.6013700962 -0.6951200962 2.4455003738
C  3.0755600929 1.3157401085 0.1986400187
C  3.3967902660 2.1916201115 -0.9930601120
N  2.4371101856 2.6229801178 0.0131800007
H  3.2469303608 -0.6251000762 -1.5384101868
H  1.3958702087 0.1990200132 -0.6108800769
H  3.8439502716 1.2377201319 0.9627100825
H  2.9804601669 1.9480102062 -1.9626401663
H  4.3471903801 2.7116403580 -1.0133601427
H  2.8457403183 3.3182103634 0.6441400647
