17

C  1.7980601788 -0.1904000193 0.4400200248
C  3.2497303486 0.0279200021 0.0512700044
N  3.5717301369 1.4437800646 0.2417600155
C  4.7925505638 1.7226201296 -0.0673900098
N  5.3441405296 2.9799304008 0.0296300016
C  6.5120606422 3.3776702881 -0.7282900214
O  4.3705701828 3.9911203384 0.0891300067
H  1.5214800835 -1.2420500517 0.3143200278
H  1.1314001083 0.4174600244 -0.1809400171
H  1.6268402338 0.0881200060 1.4852501154
H  3.3905904293 -0.2628400028 -0.9964100718
H  3.8903400898 -0.6015700698 0.6800800562
H  5.5106105804 0.9668900371 -0.4336200058
H  7.3196105957 2.6499600410 -0.6019300818
H  6.8788905144 4.3490400314 -0.3818000257
H  6.2731504440 3.4544103146 -1.7936002016
H  3.5831003189 3.5086402893 0.4279500246
