16

O  1.5949300528 -0.2834400237 -0.8290000558
C  2.7844400406 0.0409500040 -0.1101100072
C  3.5329403877 -1.0730601549 0.5560000539
C  4.0852003098 -0.4433600307 -0.6859900355
N  5.0704002380 0.6628400683 -0.6399200559
C  4.2631402016 1.8862202168 -0.4556300342
C  2.9833002090 1.4698801041 0.2815400362
H  0.8026700616 -0.1400500238 -0.2842400372
H  3.1330502033 -2.0766901970 0.4682400525
H  4.0241403580 -0.8799901009 1.5012201071
H  4.0510201454 -1.0079801083 -1.6116201878
H  5.6791801453 0.5424500704 0.1687600166
H  4.8157205582 2.6632301807 0.0816500112
H  4.0060601234 2.2804501057 -1.4458200932
H  3.1200702190 1.5473701954 1.3667700291
H  2.1388602257 2.1040601730 -0.0070700003
