13

C  1.1667300463 0.2038100213 1.0069700480
C  1.9757702351 0.3365000486 -0.0515800044
C  3.0986902714 1.3104200363 -0.0740400031
C  2.7236301899 2.7497501373 -0.4421900511
C  3.3643603325 3.0651302338 0.9158300161
O  3.6015200615 4.0476803780 1.5791701078
O  3.6133303642 1.7646100521 1.2117800713
H  0.3577000499 -0.5212000608 0.9970800281
H  1.2869801521 0.7940300703 1.9112502337
H  1.8276700974 -0.2816900313 -0.9315800667
H  3.9265704155 0.9216500521 -0.6818900108
H  1.6603801250 2.9963502884 -0.4891800582
H  3.2572002411 3.1722202301 -1.2955701351
