14

C  0.9170801044 -0.0018800001 -0.3735800385
C  2.3977701664 0.0170800015 -0.1040200070
C  3.0662901402 -1.1253000498 0.1346600205
C  3.0440003872 1.3419300318 -0.1465200186
C  2.8486402035 2.2798402309 1.0202100277
O  4.1266503334 1.7071502209 0.7283200622
H  0.7039300203 0.4415300488 -1.3518100977
H  0.3832400441 0.5725400448 0.3908100128
H  0.5087000728 -1.0181701183 -0.3726100028
H  2.5707402229 -2.0897800922 0.1534200162
H  4.1360006332 -1.1114001274 0.3234800100
H  3.0720503330 1.7801700830 -1.1396200657
H  2.3396000862 1.9254702330 1.9078102112
H  2.7129902840 3.3333404064 0.8119800091
