15

C  1.7709501982 0.1315900087 -0.6842900515
C  1.7639900446 -0.1248600036 0.8008900881
C  0.4857800305 -0.0052600005 0.0505600050
O  -0.3189100325 1.1595801115 0.2529600263
C  -1.6475801468 0.7268800735 -0.0694900006
C  -1.6331101656 -0.7745701075 0.1841300279
O  -0.3018900156 -1.1816700697 -0.1518700123
H  2.0536501408 1.1184700727 -1.0281200409
H  2.0671901703 -0.6783500910 -1.3384501934
H  2.0548501015 -1.1077901125 1.1486800909
H  2.0403501987 0.6890400052 1.4591200352
H  -2.3844501972 1.2516701221 0.5442600250
H  -1.8266501427 0.9501801133 -1.1270401478
H  -2.3671102524 -1.3108700514 -0.4212000072
H  -1.7964601517 -0.9990900755 1.2427800894
