19

C  1.0106700659 0.5396800637 0.4550900459
C  2.5048401356 0.5745900273 0.7348100543
N  3.1718401909 1.4574201107 -0.2212600112
C  4.6252002716 1.5018100739 -0.0193500016
C  5.5159306526 0.6621700525 -0.8901700974
C  5.4905805588 2.1496703625 -1.0757100582
N  6.6497602463 2.9525401592 -0.6834600568
H  0.5064900517 -0.1034300104 1.1832200289
H  0.8052100539 0.1437600106 -0.5448200107
H  0.5688199997 1.5390601158 0.5266800523
H  2.9088501930 -0.4414600134 0.6596400738
H  2.6715402603 0.9302200675 1.7584000826
H  2.7737200260 2.3941102028 -0.1528900117
H  4.9405403137 1.6425201893 1.0124100447
H  5.0570702553 0.0551000051 -1.6624602079
H  6.3889303207 0.2079900205 -0.4390300214
H  4.9896006584 2.5079600811 -1.9732002020
H  7.1180505753 2.5608401299 0.1321900189
H  6.3563303947 3.8920903206 -0.4177100062
