10

N  0.9847201109 -0.0363700017 -0.0000000000
C  2.3275902271 -0.0593000054 -0.0000000000
N  3.1041102409 -1.0728400946 -0.0000000000
C  3.0512304306 1.1751900911 -0.0000000000
C  3.6689500809 2.2043201923 -0.0000000000
C  4.4589705467 3.5164601803 -0.0000000000
N  5.0409603119 4.5198006630 0.0000000000
H  0.4769900441 0.8385900855 0.0000000000
H  0.4450700283 -0.8892900944 0.0000000000
H  2.5470702648 -1.9288700819 -0.0000000000
