18

C  1.0125000477 0.0341300033 0.0176100023
C  2.4975001812 -0.0010100001 -0.0194100011
C  3.2822504044 -1.0860600471 -0.0760500059
C  4.7332100868 -0.7376600504 -0.0583500080
N  5.3034605980 -1.0871100426 1.2338600159
C  4.7096099854 0.7742300630 -0.3209900260
C  3.3073904514 1.2554601431 0.0561400056
H  0.5849200487 -0.9725000858 -0.0296900012
H  0.6238700151 0.6052700281 -0.8312500715
H  0.6650400162 0.5057400465 0.9420400858
H  2.9272704124 -2.1074202061 -0.1020200104
H  5.2744603157 -1.2573701143 -0.8553900719
H  4.7853603363 -0.6025700569 1.9659202099
H  6.2557706833 -0.7311699986 1.2859101295
H  4.8811507225 0.9575500488 -1.3906301260
H  5.4898405075 1.3235900402 0.2175100297
H  2.9563603401 2.0189900398 -0.6448100805
H  3.2847104073 1.6643302441 1.0719600916
