10

C  1.0000001192 0.0000000000 0.0000000000
C  2.4440002441 0.0000000000 0.0000000000
C  3.6341602802 0.0000000000 0.0000000000
C  5.0781602859 0.0000000000 0.0000000000
H  0.6060900688 1.0203300714 0.0116700009
H  0.6060900688 -0.5202700496 0.8777900934
H  0.6060900688 -0.5000600219 -0.8894700408
H  5.4720702171 1.0203300714 -0.0116700009
H  5.4720702171 -0.5202700496 -0.8777900934
H  5.4720702171 -0.5000600219 0.8894700408
