16

C  1.4207800627 -0.6240900755 -0.1800900102
N  2.8269200325 -0.3427500427 -0.0583500080
C  3.3426702023 0.8636201024 -0.4634400308
O  2.6905903816 1.7582701445 -0.9840400815
C  4.7956705093 1.0228700638 -0.1780000031
C  5.5527706146 2.2338500023 -0.6719500422
C  5.2499704361 2.0899100304 0.7908601165
H  1.2638300657 -1.6943800449 -0.0284900013
H  1.0641000271 -0.3307800293 -1.1712900400
H  0.8804400563 -0.0572800040 0.5827000141
H  3.4064502716 -0.9667000175 0.4856000245
H  5.3587307930 0.0941400081 -0.1721200049
H  5.0091304779 2.9878501892 -1.2317401171
H  6.5756802559 2.0925102234 -1.0000900030
H  6.0695905685 1.8560301065 1.4595601559
H  4.5029501915 2.7527501583 1.2148001194
