17

C  1.7130300999 1.4977900982 1.8918300867
O  3.0423703194 1.6673702002 1.4161100388
C  3.1298604012 1.4373700619 0.0090600001
C  4.5762305260 1.6106301546 -0.4446200132
C  5.0400805473 3.0275101662 -0.2944800258
C  5.9938502312 3.4250502586 0.8002600670
O  6.4408407211 3.2116303444 -0.5466200113
H  1.6987100840 1.7225301266 2.9614202976
H  1.3855800629 0.4641000330 1.7465001345
H  1.0310400724 2.1846802235 1.3813000917
H  2.4740102291 2.1394302845 -0.5189900398
H  2.8022201061 0.4142400324 -0.2083300203
H  4.6554303169 1.3265900612 -1.4997800589
H  5.2241601944 0.9381700754 0.1300100088
H  4.3610806465 3.7641904354 -0.7014300823
H  6.2712001801 2.6889200211 1.5449900627
H  5.9632606506 4.4443206787 1.1627800465
