16

N  0.9522400498 -0.1805700213 -0.0149800014
C  2.4121401310 -0.1417600065 0.0373200029
C  2.9306802750 1.2957000732 -0.0832700059
C  4.4321503639 1.3459401131 -0.0225100014
C  5.2054200172 1.7994800806 -1.0189601183
C  6.6210803986 1.8278101683 -0.9019300342
C  7.8162207603 1.8535001278 -0.8070300221
H  0.6409500241 -1.1499500275 0.0385800041
H  0.6328900456 0.1696100086 -0.9175900221
H  2.8169803619 -0.7606100440 -0.7718700767
H  2.7420401573 -0.5824300051 0.9850100875
H  2.5312001705 1.9059101343 0.7362500429
H  2.5683801174 1.7430801392 -1.0175800323
H  4.8907308578 0.9985001087 0.9018900394
H  4.7687602043 2.1593501568 -1.9458200932
H  8.8781909943 1.8767101765 -0.7208500504
