12

C  0.9009900689 0.0859800056 0.0375900008
C  2.4092800617 0.0069100005 0.0700500011
N  2.9290702343 -1.2681500912 0.1798000187
C  3.1390202045 1.1379899979 0.0000000000
C  4.5450205803 1.1379899979 0.0000000000
N  5.6960306168 1.1379899979 0.0000000000
H  0.5354800224 1.1161100864 0.0089200009
H  0.4780800641 -0.3943500221 0.9285900593
H  0.5163400769 -0.4322100282 -0.8477100730
H  2.3424603939 -2.0101301670 -0.1968900114
H  3.9118001461 -1.3762601614 -0.0666500032
H  2.6545403004 2.1043701172 -0.0764600039
