11

C  1.0000001192 0.0000000000 0.0000000000
C  2.4440002441 0.0000000000 0.0000000000
C  3.6341602802 0.0000000000 0.0000000000
C  5.0781602859 0.0000000000 0.0000000000
C  5.5601801872 1.3611700535 0.0000000000
N  5.9443902969 2.4461600780 0.0000000000
H  0.6062600613 1.0201400518 0.0116500007
H  0.6061700583 -0.5201500058 0.8776200414
H  0.6064100266 -0.4996300340 -0.8887600303
H  5.4563202858 -0.5338200331 -0.8786000609
H  5.4563202858 -0.5338300467 0.8786100745
