15

O  1.1514201164 0.0120400004 0.3276300132
C  2.5527002811 -0.0329900049 0.0655000061
C  2.8811402321 -1.2566699982 -0.8064000607
C  3.2347700596 -0.6652800441 -2.1387903690
C  3.2920103073 0.6704000831 -2.0968999863
C  2.9733803272 1.1520601511 -0.7756600976
C  3.0589902401 2.4266002178 -0.3793600500
H  0.8302100897 0.8880000710 0.0554400012
H  3.0819902420 -0.0718100071 1.0228800774
H  2.0370302200 -1.9477502108 -0.8930600882
H  3.7485601902 -1.7971200943 -0.4114500284
H  3.4462101460 -1.2613301277 -3.0155603886
H  3.5565702915 1.3075400591 -2.9289600849
H  2.8148202896 2.7127201557 0.6392700672
H  3.3832902908 3.2121901512 -1.0547801256
