14

O  2.6552503109 -0.9613500237 -1.2277101278
C  2.3858602047 -0.2149600089 -0.0474000052
C  3.1859703064 1.0890101194 -0.0619300045
C  4.6780405045 0.8754701018 0.0736700073
C  5.5363502502 1.2161201239 -0.9034700990
C  5.1799306870 0.3184600174 1.2911000252
N  5.5654702187 -0.1328300089 2.2865002155
H  2.1704502106 -1.8019201756 -1.1521800756
H  2.6232101917 -0.8315300345 0.8255200982
H  1.3146001101 0.0104400003 -0.0293800030
H  2.8463501930 1.7290900946 0.7618700266
H  2.9684402943 1.6276201010 -0.9931800961
H  5.1873703003 1.6405001879 -1.8402701616
H  6.6085004807 1.0676101446 -0.8015600443
