13

C  1.0001001358 -0.0544300042 0.0033000002
C  2.5200002193 0.0000000000 0.0000000000
C  3.0020201206 1.3611700535 0.0000000000
C  3.3993003368 2.4830701351 0.0000000000
C  3.8813202381 3.8442401886 0.0000000000
H  0.6580100656 -1.0936901569 0.0029300002
H  0.5850000381 0.4410800338 -0.8804500699
H  0.5888800621 0.4392500222 0.8897800446
H  2.8956103325 -0.5327100158 -0.8808600903
H  2.8994700909 -0.5341000557 0.8783600926
H  3.0875902176 4.5432906151 -0.2808800340
H  4.7047605515 3.9707102776 -0.7095900774
H  4.2461404800 4.1331005096 0.9904701114
