15

C  0.9879601002 0.2223000079 -0.0485500023
N  2.4238703251 0.1970500201 0.0407800041
C  3.2032201290 1.3000900745 -0.0456800014
N  4.4646105766 1.2965800762 -0.3251300156
C  4.8449907303 2.7084600925 -0.2199300230
C  3.5388503075 3.4643802643 -0.1782499999
O  2.5763101578 2.4834401608 0.1701100171
H  0.5902300477 -0.7851400375 0.1057800129
H  0.6679000854 0.5689300299 -1.0358101130
H  0.5546900034 0.8737800717 0.7166400552
H  2.8814301491 -0.6350000501 -0.3115800023
H  5.4210801125 2.8619801998 0.6992800832
H  5.4642205238 3.0221302509 -1.0657401085
H  3.2760601044 3.8859803677 -1.1542000771
H  3.5496103764 4.2682003975 0.5635700226
