15

C  0.1037100106 0.2965600193 -0.2729000151
C  1.4989900589 -0.0470500030 0.1397600025
C  2.5686502457 0.6752500534 -0.2241800129
O  3.8874704838 0.4785200357 0.0761800110
C  4.2201404572 -0.6455000639 0.8918700218
C  5.6751303673 -0.6813300252 1.0899801254
C  6.8666806221 -0.7122900486 1.2523901463
H  -0.3296800256 -0.5303699970 -0.8437300920
H  0.0640500039 1.1975500584 -0.8932500482
H  -0.5156700611 0.4649400115 0.6133800149
H  1.5972201824 -0.9306300879 0.7614400983
H  2.4857001305 1.5617301464 -0.8460000157
H  3.8987004757 -1.5710701942 0.3998700380
H  3.7232301235 -0.5588400364 1.8653302193
H  7.9218406677 -0.7334800363 1.3914401531
