15

C  1.0000001192 0.0000000000 0.0000000000
C  2.4440002441 0.0000000000 0.0000000000
C  3.6341602802 0.0000000000 0.0000000000
C  5.0781602859 0.0000000000 0.0000000000
C  5.6285004616 -0.7724201083 -1.1930700541
C  5.6092500687 1.4153201580 -0.0551400036
O  6.5545701981 1.8126801252 0.6215900183
H  0.6060100794 1.0208801031 0.0115700010
H  0.6059300303 -0.5204700232 0.8782700896
H  0.6060200334 -0.5003700256 -0.8899201155
H  5.4499802589 -0.4575100243 0.9243300557
H  5.3008003235 -0.3340100348 -2.1434302330
H  5.2957806587 -1.8162400723 -1.1747900248
H  6.7242407799 -0.7656600475 -1.1900601387
H  5.1480803490 2.0762500763 -0.8105500937
