20

C  2.8351001740 -0.7503700256 -1.5169900656
N  2.1311302185 0.3178200126 -0.8093100786
C  1.2140001059 1.0162900686 -1.7017601728
C  3.0315802097 1.1650700569 0.0237100031
C  3.2988002300 0.5880300999 1.3996900320
C  4.1674103737 1.9153201580 -0.6443000436
C  3.0175104141 2.6792900562 -0.0652700067
H  3.4545702934 -1.3367201090 -0.8293901086
H  3.4806704521 -0.3627400398 -2.3128502369
H  2.1221001148 -1.4521101713 -1.9653401375
H  1.7409001589 1.5633900166 -2.4917302132
H  0.5865899920 1.7192101479 -1.1425900459
H  0.5253000259 0.3100200295 -2.1804502010
H  3.9154801369 1.2559500933 2.0116202831
H  3.8256201744 -0.3679900169 1.3232500553
H  2.3563103676 0.4230400026 1.9311600924
H  4.2550802231 1.8899002075 -1.7241501808
H  5.1226506233 1.9667601585 -0.1332900077
H  3.1941204071 3.2517101765 0.8397800922
H  2.3591501713 3.1895804405 -0.7560100555
