15

N  0.9918301105 0.0376200005 -0.0121900002
C  2.4454302788 0.0034200002 -0.0175300017
C  2.9991402626 -1.2683302164 0.6385700107
C  3.3092401028 -0.8983300328 2.0894200802
C  3.4684801102 0.5844200253 2.0198602676
C  2.9829802513 1.0746001005 0.8729800582
H  0.6339000463 -0.7385400534 -0.5646100640
H  0.6754400730 0.8885300756 -0.4725000262
H  2.8236801624 0.1032400131 -1.0401400328
H  3.9289603233 -1.5612601042 0.1314900070
H  2.3232202530 -2.1280202866 0.5698300600
H  4.2222504616 -1.3912401199 2.4354002476
H  2.4848403931 -1.1615800858 2.7600600719
H  3.8728401661 1.1830600500 2.8237402439
H  2.9523601532 2.1262302399 0.6254900694
