12

C  1.0000001192 0.0000000000 0.0000000000
C  2.4440002441 0.0000000000 0.0000000000
C  3.6341602802 0.0000000000 0.0000000000
C  5.0401601791 0.0000000000 0.0000000000
C  5.6978602409 -1.1711400747 0.0000000000
C  5.7741503716 1.2280400991 0.0000000000
N  6.3841304779 2.2141001225 0.0000000000
H  0.6059800386 1.0208600760 0.0116800005
H  0.6059800386 -0.5205600262 0.8782500625
H  0.6059800386 -0.5003200173 -0.8899300694
H  5.1687703133 -2.1197500229 0.0000000000
H  6.7836003304 -1.2140300274 0.0000000000
