12

C  2.6727700233 -1.1674901247 0.3831600249
C  2.2137300968 0.0716700032 0.1633000225
C  3.0083601475 1.2472600937 0.0717200041
C  2.5311303139 2.5141401291 -0.1537500173
O  3.5652203560 3.3932902813 -0.1805800200
N  4.7535600662 2.7111401558 0.0291900039
C  4.4015002251 1.4304600954 0.1778000146
H  1.9843301773 -2.0060901642 0.4369800389
H  3.7267003059 -1.3891100883 0.5146400332
H  1.1373401880 0.1911500245 0.0444900021
H  1.5529301167 2.9443001747 -0.3077100515
H  5.1770305634 0.6993200779 0.3554200232
