7

C  -0.0837600008 0.8965000510 -0.0611100011
C  -0.7926600575 -0.4285400212 -0.0614300072
O  0.6359800100 -0.3407300413 0.0133000016
H  -0.0273200031 1.4518501759 -0.9886500835
H  -0.1258500069 1.5040701628 0.8338500261
H  -1.2231001854 -0.7832800746 -0.9891600609
H  -1.3216100931 -0.7310400605 0.8333000541
