17

C  1.0017000437 -0.0540100038 0.0029200001
C  2.5200002193 0.0000000000 0.0000000000
C  3.0020201206 1.3611700535 0.0000000000
C  3.3993003368 2.4830701351 0.0000000000
C  3.8813202381 3.8442401886 0.0000000000
O  2.7803101540 4.7365403175 -0.1644600183
C  3.2022402287 6.0924000740 -0.1709900051
H  0.6573800445 -1.0936501026 0.0028400002
H  0.5849900246 0.4416400194 -0.8814700842
H  0.5884400606 0.4403500557 0.8896501064
H  2.8956704140 -0.5328300595 -0.8807600737
H  2.8991003036 -0.5340600610 0.8785400391
H  4.5939602852 3.9943704605 -0.8188900948
H  4.3892002106 4.0668501854 0.9452400804
H  2.3211801052 6.7268805504 -0.2994600236
H  3.8890902996 6.2768902779 -1.0026800632
H  3.6819701195 6.3499002457 0.7782500982
