21

C  0.9416600466 0.0314900018 -0.0109000010
C  2.4689102173 -0.1764100045 0.0070300004
C  2.8358001709 -0.9820001125 1.2661401033
C  2.8683502674 -0.9801000953 -1.2433900833
C  3.1498203278 1.2195801735 0.0114600006
C  4.6553902626 1.2065801620 0.0248300023
C  5.4183301926 1.6750701666 -0.9700601101
H  0.6285700798 0.5888400674 -0.9006900787
H  0.6089900136 0.5924000740 0.8695000410
H  0.4101300240 -0.9266800880 -0.0152700003
H  2.5973203182 -0.4210300446 2.1763503551
H  3.9015700817 -1.2310900688 1.2930201292
H  2.2817301750 -1.9268301725 1.3036301136
H  2.6371803284 -0.4250800312 -2.1592102051
H  2.3287601471 -1.9329800606 -1.2874301672
H  3.9385204315 -1.2117700577 -1.2513201237
H  2.8185803890 1.7818301916 0.8945800662
H  2.7962601185 1.7925801277 -0.8566400409
H  5.1402702332 0.8092300892 0.9143000841
H  4.9861803055 2.0910401344 -1.8746601343
H  6.5023307800 1.6489100456 -0.8984500766
