15

C  1.1477900743 -0.3717200458 0.3813800514
C  2.2078800201 -0.1797000170 -0.6920900941
C  2.3058202267 -1.4383800030 -1.5318400860
O  3.3066501617 -2.1509699821 -1.5676901340
N  1.7850902081 0.9247700572 -1.5696400404
C  2.7586002350 1.5349301100 -2.1382100582
N  2.5694901943 2.5720901489 -2.9894301891
H  1.0543500185 0.5281500220 0.9983900785
H  1.4019600153 -1.2127799988 1.0350600481
H  0.1650200188 -0.5776500702 -0.0578600056
H  3.1772603989 0.0147400014 -0.2167000026
H  1.4028000832 -1.7010601759 -2.1102101803
H  3.8249201775 1.2760101557 -2.0006101131
H  1.6267100573 2.9467003345 -2.9734601974
H  3.2969102859 3.2747201920 -3.0399801731
