12

N  1.0000001192 0.0000000000 0.0000000000
C  2.1510102749 0.0000000000 0.0000000000
C  3.5570101738 0.0000000000 0.0000000000
C  4.3470706940 -1.0879701376 0.0049500004
C  5.7872405052 -0.6661500335 0.0063700005
C  5.6735606194 0.8311800361 0.0013600001
C  4.3803505898 1.1883200407 -0.0022800004
H  4.0130500793 -2.1154000759 0.0085500004
H  6.3058805466 -1.0269300938 -0.8865600228
H  6.3021907806 -1.0209500790 0.9039000869
H  6.5150103569 1.5083200932 0.0012200001
H  3.9971401691 2.1981201172 -0.0059300005
