15

C  1.6037801504 -0.1213300079 -0.0935300067
C  0.7261800766 -1.1720300913 0.5871900320
O  -0.4443800151 -1.5039001703 -0.1620400250
C  -1.4257401228 -0.5532500148 -0.1804900169
C  -1.3349201679 0.7509700060 0.1199100092
C  -0.0836900026 1.5104300976 0.4277000427
O  0.9663800597 1.1073701382 -0.4388700128
H  2.0011501312 -0.5310400128 -1.0282300711
H  2.4593100548 0.1119300127 0.5494100451
H  1.3078500032 -2.0950400829 0.6934100389
H  0.4428300261 -0.8750400543 1.6052201986
H  -2.3586401939 -1.0051699877 -0.4992400110
H  -2.2431702614 1.3461700678 0.0712700039
H  0.2032800168 1.4405200481 1.4825400114
H  -0.2666100264 2.5698802471 0.2165900171
