16

C  1.0000001192 0.0000000000 0.0000000000
C  2.1901600361 0.0000000000 0.0000000000
C  3.6341602802 0.0000000000 0.0000000000
C  4.2311902046 1.1250401735 0.8315901160
C  5.6199703217 0.5992900729 1.1342101097
N  5.4056906700 -0.8178900480 1.4222501516
C  4.2526602745 -1.2565001249 0.6199700236
H  -0.0658000037 0.0009100001 0.0034300003
H  4.0035901070 0.0979700089 -1.0299201012
H  3.6686601639 1.2823101282 1.7615602016
H  4.2564401627 2.0750701427 0.2882600129
H  6.2727904320 0.7125800848 0.2610800266
H  6.0798602104 1.1146301031 1.9817800522
H  6.2359204292 -1.3649600744 1.2004600763
H  4.5721201897 -1.9522001743 -0.1655400097
H  3.5542802811 -1.7934101820 1.2717701197
