9

O  0.8678300381 0.1306800097 0.0000000000
N  2.2632901669 0.0099500008 -0.0000000000
C  2.7811203003 1.1864901781 0.0000000000
C  4.2119803429 1.1439200640 0.0000000000
C  5.4117903709 1.0982002020 -0.0000000000
C  6.9427604675 1.0312800407 -0.0000000000
N  8.1021203995 0.9892100692 -0.0000000000
H  0.5761300325 -0.8012501001 -0.0000000000
H  2.2376301289 2.1438400745 0.0000000000
