17

C  0.8868600726 0.0636200085 0.0935900062
C  2.3994703293 0.0449100062 0.0152400006
C  3.1471002102 1.0175800323 0.9344500899
O  4.0208406448 -0.0414000042 1.3990100622
C  3.1262803078 -1.0438100100 0.8343100548
C  3.7415103912 -2.1302700043 0.0279900022
C  5.0237603188 -2.0958502293 -0.3549800217
H  0.4633400440 -0.7842900753 -0.4541100264
H  0.4902900457 0.9822600484 -0.3504000306
H  0.5327700973 0.0084200008 1.1283200979
H  2.7411303520 0.1207900122 -1.0257000923
H  2.5737702847 1.4448200464 1.7632700205
H  3.7027001381 1.8079601526 0.4223400056
H  2.5176401138 -1.4743000269 1.6411402225
H  3.1113703251 -2.9712800980 -0.2437700182
H  5.6787505150 -1.2703500986 -0.0903900042
H  5.4514503479 -2.9038200378 -0.9395800829
