16

C  0.9738901258 0.1099800095 0.5254800320
C  2.4094502926 -0.3047800362 0.2566200197
C  3.3127703667 0.8814800382 -0.0269200020
O  2.9192903042 2.0438201427 -0.0349499993
N  4.6217107773 0.4949400425 -0.2726300061
C  5.6276907921 1.3806500435 -0.5540700555
C  6.8797602654 0.9811400771 -0.7868500352
H  0.3541400135 -0.7693500519 0.7256800532
H  0.5499700308 0.6389800906 -0.3344600201
H  0.9129601121 0.7762700319 1.3923000097
H  2.4390602112 -0.9785100818 -0.6070600152
H  2.8034601212 -0.8413701057 1.1269901991
H  4.8462405205 -0.4922900200 -0.2427300215
H  5.3573403358 2.4357702732 -0.5795900226
H  7.1743907928 -0.0619600043 -0.7673700452
H  7.6523108482 1.7119400501 -1.0069401264
