16

C  1.3112200499 -0.0635900050 1.1713800430
C  2.0771701336 0.1387600005 -0.1226800084
C  3.2057101727 1.1262701750 0.0602500066
O  2.7041203976 2.3849601746 0.1814400107
C  3.5254902840 3.5048401356 0.5307200551
N  4.4313902855 0.6993400455 0.0734500065
O  5.3980207443 1.6941400766 0.1953000277
H  0.5351999998 -0.8241100311 1.0397901535
H  0.8260300159 0.8644000292 1.4921301603
H  1.9777401686 -0.3864800334 1.9779502153
H  1.4108200073 0.5025700331 -0.9123600125
H  2.4912703037 -0.8176100254 -0.4605200291
H  2.8614201546 4.3533501625 0.7196000814
H  4.1794700623 3.7703003883 -0.3042200208
H  4.0838704109 3.3090903759 1.4504700899
H  6.2289505005 1.1848200560 0.1524800211
