14

N  0.9103000760 0.0903200060 -0.3132199943
C  2.0455501080 0.1371100098 0.4510000348
O  2.2166202068 -0.7196800709 1.3168200254
C  3.0138401985 1.2801001072 0.1117900088
C  2.5321700573 2.7221302986 0.2956800163
O  3.7558002472 3.0790703297 0.9840600491
C  4.0569500923 1.6704401970 1.1664900780
H  0.7211101055 0.7228500247 -1.0773501396
H  0.2619700134 -0.6673400402 -0.1373100132
H  3.4772803783 1.1225700378 -0.8719100356
H  1.6595901251 2.8644201756 0.9412701130
H  2.4038400650 3.2904300690 -0.6297200918
H  5.0932207108 1.4386000633 0.9056900144
H  3.8548104763 1.3567600250 2.1955702305
