16

C  0.9499701262 0.0226000026 0.1116200089
C  2.4702100754 -0.0251000021 -0.0583000034
C  2.8229801655 -0.8156200647 -1.3217000961
C  3.0404202938 1.4028000832 -0.0984000117
C  4.5091805458 1.4194700718 -0.0074000005
C  5.7089204788 1.4388301373 0.0679900050
H  0.6777500510 0.5438900590 1.0354700089
H  0.5322600603 -0.9884100556 0.1649200171
H  0.4722800255 0.5433000326 -0.7253600359
H  2.8896102905 -0.5575000644 0.8056100607
H  2.4390201569 -0.3202800155 -2.2200701237
H  2.3918201923 -1.8217700720 -1.2813800573
H  3.9061403275 -0.9276201129 -1.4325301647
H  2.6364502907 1.9823302031 0.7409700751
H  2.7204802036 1.9125301838 -1.0152500868
H  6.7720804214 1.4558200836 0.1346300244
