18

C  0.8685500622 -0.1107600033 0.2587600350
C  2.3410301208 0.1395300031 0.0043700002
C  3.0365002155 1.1703400612 0.9164800644
N  4.2254900932 0.2885900140 0.9415400624
C  3.3446702957 -0.8667400479 0.6275600791
C  3.9886903763 -1.8075801134 -0.3181600273
C  5.0448803902 -2.5385503769 0.0596700013
H  0.5218800306 -0.9773201346 -0.3132500350
H  0.2729400396 0.7549500465 -0.0480400026
H  0.6665000319 -0.3019800484 1.3177800179
H  2.5232903957 0.3466800451 -1.0609000921
H  2.5788002014 1.3044900894 1.9038001299
H  3.2065103054 2.1556801796 0.4732100368
H  4.8928704262 0.4900400639 0.1966800243
H  2.9681603909 -1.3718301058 1.5276701450
H  3.5770301819 -1.9174801111 -1.3171300888
H  5.4682507515 -2.4520204067 1.0569900274
H  5.5124006271 -3.2383003235 -0.6256300211
