13

C  3.1950201988 -2.3320801258 1.3206300735
C  3.5965301991 -1.0676000118 1.1484301090
C  3.0442204475 -0.2001400143 0.1368400156
C  3.4414701462 1.0657801628 -0.0312800035
O  2.8857302666 1.8748801947 -1.0252000093
C  3.2419302464 3.1934301853 -0.9834001064
O  3.9801902771 3.7516105175 -0.1862200201
H  3.6382002831 -2.9494001865 2.0960202217
H  2.4239201546 -2.7843601704 0.7050300837
H  4.3734502792 -0.6661300659 1.7964901924
H  2.2696201801 -0.6026700139 -0.5115500689
H  4.2083005905 1.5416901112 0.5677700639
H  2.7387900352 3.7082803249 -1.8172202110
