15

O  0.8507700562 -0.0050500003 0.2155600190
C  2.0805501938 -0.0132100005 0.0904300064
C  2.8188800812 1.2903001308 -0.1134200096
C  4.3381500244 1.2605800629 -0.0079900008
C  4.9831404686 -0.0797000080 -0.0224800017
C  4.3045701981 -1.2342100143 0.0033200004
C  2.8214602470 -1.3368600607 0.0501300059
H  2.4324502945 2.0006201267 0.6319400072
H  2.5323202610 1.6699600220 -1.0986300707
H  4.6468400955 1.7764800787 0.9082900882
H  4.7534704208 1.8528600931 -0.8353101015
H  6.0715203285 -0.1054100022 -0.0447600037
H  4.8593602180 -2.1713702679 -0.0016000001
H  2.4767203331 -1.8877201080 -0.8308200240
H  2.5366604328 -1.8974601030 0.9467300773
