18

C  0.9700201154 1.6906601191 1.2627700567
C  2.4544701576 1.5345600843 1.2231801748
C  3.1616601944 1.3722400665 0.0932500064
C  4.6358003616 1.2200001478 0.0698999986
C  5.4882106781 2.3448903561 0.6937000751
C  6.3462805748 1.1891900301 1.2401100397
N  5.1512303352 0.3221600056 1.1315701008
H  0.7083300352 2.6489403248 1.7217100859
H  0.5270000100 0.8894200921 1.8620702028
H  0.5231000185 1.6569200754 0.2640900314
H  2.9626700878 1.5480601788 2.1855702400
H  2.6563200951 1.3525902033 -0.8682500720
H  4.9862904549 0.9327400923 -0.9314600825
H  5.0036802292 2.9425702095 1.4748201370
H  5.9882402420 3.0159702301 -0.0097500002
H  7.1699304581 0.8900200725 0.5813300610
H  6.7280507088 1.3205500841 2.2557601929
H  5.3319702148 -0.6307000518 0.8247400522
