16

N  0.7024300694 0.8418501019 1.1613600254
C  1.7337801456 0.1437700093 0.4025300145
C  2.9506702423 1.0142401457 0.2570200264
C  3.7731404305 1.2273300886 1.4985300303
O  4.9772100449 1.9384702444 1.2166500092
C  3.5466704369 1.2087800503 -1.1255600452
O  2.7352502346 2.2180101871 -0.5100400448
H  -0.1539200097 0.2894400060 1.1486700773
H  0.4823300242 1.7113101482 0.6713800430
H  1.3306601048 -0.1322100163 -0.5784000158
H  1.9994301796 -0.7867600918 0.9159100652
H  4.0542802811 0.2653300166 1.9403700829
H  3.2135503292 1.7973001003 2.2489202023
H  4.6887803078 2.7842602730 0.8216200471
H  3.1223402023 0.6714900732 -1.9651401043
H  4.6082100868 1.4015001059 -1.2242901325
