16

O  2.2923500538 -0.3538500369 -1.4635701180
C  2.3053302765 0.1766600162 -0.1363100111
C  3.3402001858 1.3089001179 -0.0161400009
N  3.5278303623 1.7121801376 1.4011801481
C  3.1392402649 3.1303703785 1.5110400915
C  2.8005003929 3.5699801445 0.1368200183
C  2.9087700844 2.5542902946 -0.7187800407
H  1.6061301231 -1.0428100824 -1.4774901867
H  2.5627403259 -0.6448800564 0.5412800908
H  1.2952201366 0.5248700380 0.1083600074
H  4.2974805832 0.9801900387 -0.4384300113
H  4.5235905647 1.6461501122 1.6072801352
H  3.9645502567 3.7236101627 1.9185302258
H  2.2748901844 3.2290303707 2.1748802662
H  2.4974801540 4.5738902092 -0.1213700101
H  2.7116501331 2.5989401340 -1.7802201509
