19

C  0.9971000552 0.2047300190 0.8780500293
C  2.4751002789 0.0921500102 0.6844600439
C  3.2661902905 1.1349800825 0.3852200210
C  4.7151799202 1.0977901220 0.1840500236
C  5.4032506943 -0.2393400222 0.2865600288
C  5.3515400887 2.2559802532 -0.0881900042
C  6.8118205070 2.4870901108 -0.3177400231
H  0.7274900079 -0.1233600080 1.8871301413
H  0.4772100449 -0.4355400503 0.1581800133
H  0.6354400516 1.2297401428 0.7452600598
H  2.8833003044 -0.9064800739 0.8042900562
H  2.7962503433 2.1128001213 0.2819300294
H  4.9724307060 -0.9496000409 -0.4281100333
H  5.2971405983 -0.6488000751 1.2971500158
H  6.4724702835 -0.1980900168 0.0706300065
H  4.7658505440 3.1731202602 -0.1529700160
H  7.4352102280 1.6084300280 -0.1466900110
H  7.1655306816 3.2734003067 0.3569500148
H  6.9741506577 2.8253102303 -1.3457701206
