18

C  0.9785000682 0.0050500003 -0.0242000017
C  2.5019702911 -0.0075800004 -0.0032200003
C  3.0771901608 -1.2740601301 0.6516800523
C  3.3623204231 -0.8917500377 2.1124501228
N  4.5461502075 -1.5443501472 2.6398003101
C  3.5326204300 0.5866900682 2.0258302689
C  3.0559401512 1.0755400658 0.8744500875
H  0.5970700383 -0.8139200807 -0.6429000497
H  0.6022700071 0.9452201128 -0.4405500591
H  0.5553800464 -0.1099800095 0.9806500673
H  2.8846802711 0.0911700055 -1.0250301361
H  4.0064401627 -1.5481901169 0.1314700097
H  2.4095602036 -2.1400201321 0.5790600777
H  2.5016403198 -1.1218700409 2.7507500648
H  5.3420305252 -1.3242100477 2.0424602032
H  4.4258699417 -2.5536100864 2.5785200596
H  3.9426503181 1.1867700815 2.8264803886
H  3.0404803753 2.1253001690 0.6137100458
