12

C  0.9860000610 -0.0016700001 -0.0056600003
C  2.4630303383 0.0604700036 -0.0027400001
C  3.2774202824 1.1167300940 0.0019800002
C  4.6003103256 0.5163100362 0.0029500001
N  4.6172404289 -0.7721400857 -0.0005600000
C  3.3006803989 -1.1595300436 -0.0041500004
O  2.8597903252 -2.2949903011 -0.0078200009
H  0.5451800227 1.0005100965 0.0010200001
H  0.6211600304 -0.5351300836 0.8778300881
H  0.6243100166 -0.5220900774 -0.8981601000
H  3.0491001606 2.1656401157 0.0044500004
H  5.4919905663 1.1600401402 0.0064600008
