12

O  0.8621800542 0.9123200178 -0.8016400337
N  2.2288000584 0.8542900681 -1.0963600874
C  2.8996102810 1.0732799768 -0.0059700008
C  4.4189105034 1.1005600691 0.0000000000
O  4.9463701248 0.4058100283 -1.1200500727
C  4.9009203911 2.4617302418 0.0000000000
C  5.2982106209 3.5836303234 0.0000000000
H  0.4490400255 0.7270500064 -1.6665201187
H  2.3953702450 1.2852901220 0.9536200762
H  4.7505006790 0.5759299994 0.9016800523
H  4.3824605942 0.6676600575 -1.8724701405
H  5.6604404449 4.5860805511 -0.0072300006
