16

C  0.9557700753 0.0982100070 -0.2121100277
C  2.4243202209 -0.0157900024 0.0152400006
C  3.2772202492 -0.8087000251 -0.9353400469
C  3.3939702511 0.6982000470 -0.9006701112
C  4.6024703979 1.3290500641 -0.3336700201
N  5.7048802376 1.2243801355 -0.9965900779
O  6.7177405357 1.8888001442 -0.2955200374
H  0.5685400367 0.9969701171 0.2778600156
H  0.4411300421 -0.7698000669 0.2116500288
H  0.7060600519 0.1560600102 -1.2765700817
H  2.6613500118 -0.0811700076 1.0714801550
H  2.8162102699 -1.2552801371 -1.8090400696
H  4.0931501389 -1.3942000866 -0.5248200297
H  2.9806003571 1.2342001200 -1.7495601177
H  4.5151801109 1.8691202402 0.6244600415
H  7.4948606491 1.7439301014 -0.8671100736
