16

O  1.0285100937 -0.1014400050 -0.0932100043
C  2.4441101551 0.0529200062 -0.0318000019
C  3.3557703495 -0.5891200304 -1.1043300629
C  4.4198403358 -0.3056400418 0.0101200007
C  3.2838001251 -0.7540000677 0.9885700345
N  4.4324903488 1.1773900986 0.1214900091
C  2.9868900776 1.4654101133 0.0935900062
H  0.6983800530 0.1982600093 0.7707100511
H  3.4782402515 -0.0478900038 -2.0481202602
H  3.1651301384 -1.6451500654 -1.3287200928
H  5.3743505478 -0.8277201056 -0.0009400001
H  3.0832402706 -1.8311600685 1.0320400000
H  3.3362700939 -0.3666700423 2.0114400387
H  4.8358201981 1.5239701271 0.9922700524
H  2.7292401791 2.0923402309 -0.7649200559
H  2.6586802006 1.9549001455 1.0166200399
