15

C  1.0733200312 -0.0385800041 0.2625000179
C  2.4174902439 0.1794000119 -0.3449000120
C  3.1764502525 1.2752500772 -0.2112500072
C  2.8502902985 2.5320303440 0.5120900273
O  3.6961402893 3.4985401630 -0.1026100069
C  4.7586402893 2.7409601212 -0.6797000170
O  4.3830804825 1.3739800453 -0.8753800392
H  1.0356700420 -1.0237600803 0.7390900850
H  0.3034300208 -0.0058200005 -0.5146900415
H  0.8269700408 0.7082800269 1.0243101120
H  2.7997901440 -0.6354200244 -0.9592100978
H  3.1087300777 2.4602000713 1.5725101233
H  1.8107801676 2.8465101719 0.3984200358
H  5.0274806023 3.1820201874 -1.6433100700
H  5.6301808357 2.7819902897 -0.0166100003
