13

C  4.7578301430 -2.1572501659 -0.6798100471
C  4.2003903389 -1.1697400808 -0.2807900310
C  3.5153903961 0.0369600020 0.2077900171
N  4.4239401817 1.1885300875 0.1731600165
C  4.3729400635 1.9452601671 -1.0751000643
C  3.7333803177 2.4742400646 0.1836400032
H  5.2608900070 -3.0276303291 -1.0309901237
H  3.2019200325 -0.1253800094 1.2458701134
H  2.5977602005 0.1941000074 -0.3747400343
H  3.7366702557 1.5880800486 -1.8754101992
H  5.3109407425 2.3832902908 -1.3941800594
H  4.2381601334 3.2742702961 0.7116400599
H  2.6526203156 2.4869000912 0.2511400282
