15

N  1.8331100941 1.6512202024 0.5599099994
C  2.4077301025 2.8681702614 0.5219600201
S  1.5277101994 4.2330303192 0.8594000340
N  3.7231502533 2.9422602654 0.2312600166
C  4.6293501854 1.8449001312 -0.0134300012
C  6.0029401779 2.4000103474 -0.2034700215
C  6.6882209778 2.3505601883 -1.3538000584
H  2.2533502579 0.8498401046 0.1152600124
H  0.8324900270 1.6130101681 0.7133000493
H  4.0981502533 3.8838303089 0.2109800130
H  4.2788605690 1.2963701487 -0.8942500949
H  4.6065101624 1.1660500765 0.8453400731
H  6.4700207710 2.8552801609 0.6674600840
H  6.2703604698 1.9016401768 -2.2500100136
H  7.6889004707 2.7671000957 -1.4229501486
