12

O  2.5232303143 -0.9087500572 -1.3122401237
C  2.1959500313 -0.1759100109 -0.2212200165
O  1.1952600479 -0.4055700302 0.4419100285
C  3.1518900394 0.9709700346 0.0581000037
C  4.5737800598 0.4961900413 0.1669800133
C  5.5696706772 0.8938400745 -0.6356700659
H  3.3557500839 -0.6141400337 -1.7306001186
H  2.8616600037 1.4372301102 1.0061300993
H  3.0238602161 1.7199500799 -0.7311100364
H  4.7904305458 -0.2083900124 0.9700100422
H  5.4172501564 1.6109901667 -1.4371000528
H  6.5802307129 0.5201500058 -0.4894700348
