17

C  1.5009201765 0.1832900047 1.5329101086
C  1.8708901405 0.4893800616 0.0921800137
C  2.7695503235 1.7192600965 0.0121500008
C  2.1395301819 3.0732002258 -0.1613200009
C  0.8287100196 3.3336203098 -0.0816600099
N  4.0498204231 1.4881601334 0.1012000069
N  4.8748803139 2.5579502583 0.0648600087
H  0.8721000552 -0.7106300592 1.5822300911
H  0.9524400234 1.0129400492 1.9892202616
H  2.3957602978 0.0058400002 2.1382300854
H  0.9743500948 0.6243600249 -0.5202700496
H  2.4111602306 -0.3642900288 -0.3349800110
H  2.8268201351 3.8864202499 -0.3718800247
H  0.0808800012 2.5785601139 0.1295200139
H  0.4689300358 4.3481602669 -0.2267300189
H  5.8339104652 2.2315001488 -0.0789300054
H  4.8971004486 3.0134701729 0.9807100296
