19

C  1.7106201649 -0.1440600008 -0.0408000052
C  0.8215100765 -1.2532600164 0.5139500499
C  -0.4322300255 -1.5380301476 -0.3098800182
C  -1.5400201082 -0.5330400467 -0.1665400118
C  -1.4351401329 0.7625000477 0.1696200073
C  -0.1758400202 1.5601900816 0.3563900292
C  0.9965100884 1.1183100939 -0.5168900490
H  2.3004903793 -0.5395000577 -0.8777900934
H  2.4379100800 0.1279800087 0.7351700664
H  1.4219501019 -2.1699399948 0.5718000531
H  0.5404600501 -1.0155301094 1.5479501486
H  -0.8321200609 -2.5019199848 0.0328100026
H  -0.1847200245 -1.6647601128 -1.3703300953
H  -2.5412900448 -0.9328901172 -0.3204600215
H  -2.3585400581 1.3293501139 0.2844000161
H  0.1016000062 1.5753000975 1.4170300961
H  -0.4114200175 2.5974402428 0.0834600031
H  1.7344300747 1.9293301105 -0.5575300455
H  0.6540900469 0.9754101038 -1.5499402285
