15

C  2.3045802116 -0.5497699976 -1.4012101889
C  2.4699201584 0.0084300013 0.0038500002
C  2.9811203480 1.4052001238 0.0024700002
C  2.2583303452 2.5799400806 -0.0133500015
N  3.1710500717 3.5935802460 -0.0071400008
N  4.4428200722 3.1660501957 0.0129300011
C  4.3277301788 1.8361601830 0.0193000007
H  1.9281601906 -1.5767700672 -1.3599901199
H  3.2589900494 -0.5584100485 -1.9386701584
H  1.5966601372 0.0490900055 -1.9843400717
H  3.1567602158 -0.6329100728 0.5690900087
H  1.5051901340 -0.0301600024 0.5239800215
H  1.1966400146 2.7787101269 -0.0290200021
H  2.9999701977 4.5939602852 -0.0152300010
H  5.2267003059 1.2331100702 0.0351200029
