15

O  1.4355701208 0.4853900373 1.7934300900
N  2.7187802792 0.4169400334 1.2358200550
C  2.8114302158 1.3067600727 0.3007000089
C  4.0786504745 1.4729100466 -0.4888000190
C  4.7141804695 2.8031702042 -0.2287000269
C  5.4087705612 3.5445504189 -1.3428300619
N  4.1280603409 4.0067405701 -0.8145100474
H  1.4594401121 -0.2221400142 2.4639101028
H  1.9713500738 1.9769902229 0.0461200066
H  3.8230001926 1.3534600735 -1.5474801064
H  4.7830004692 0.6761500835 -0.2228800207
H  5.1077904701 2.8911902905 0.7779900432
H  5.3818807602 3.1368703842 -2.3459100723
H  6.2769503593 4.1470904350 -1.1074401140
H  4.2589702606 4.8126907349 -0.1982500106
