14

C  1.0400401354 0.0051000006 0.0683900043
C  2.3771800995 0.0224100016 0.0396000035
C  3.2353401184 1.2393400669 0.0609300025
C  4.3876700401 0.7635800242 -0.7978100777
O  4.5681805611 -0.6235900521 -0.4775600135
C  3.2726502419 -1.1599000692 -0.1525800079
H  0.4860200286 -0.9263001084 -0.0024000001
H  0.4653300345 0.9215400219 0.1635800153
H  3.5743703842 1.4277302027 1.0856001377
H  2.7609202862 2.1390302181 -0.3386000395
H  4.1593303680 0.8454900980 -1.8673901558
H  5.3137402534 1.3092401028 -0.5959500670
H  2.9427301884 -1.8007401228 -0.9755500555
H  3.3719601631 -1.7484301329 0.7637500167
