15

O  1.8673501015 -0.3384000361 1.4400100708
N  2.5705602169 -0.0639500022 0.2624100149
C  3.3023302555 0.9856900573 0.4440100491
N  4.1198902130 1.5199000835 -0.5082600713
C  5.2085304260 2.3959100246 -0.1049300060
C  5.7900304794 3.3816802502 -1.0785501003
C  4.9872403145 3.8684704304 0.0922800079
H  1.3477700949 -1.1261101961 1.1935501099
H  3.3179202080 1.5337401628 1.4037901163
H  4.2172703743 0.9348400831 -1.3312700987
H  5.9167103767 1.9040701389 0.5595100522
H  5.3442707062 3.4605903625 -2.0632600784
H  6.8621602058 3.5390202999 -1.0607800484
H  5.5136203766 4.3561902046 0.9041401148
H  3.9994604588 4.2699704170 -0.1033400074
