13

C  2.7004702091 -1.0919201374 0.3815600276
C  2.1957101822 0.1298100054 0.1612100005
C  2.9587802887 1.3255500793 0.0992000103
C  2.4775302410 2.5939102173 -0.1243200079
N  3.5860502720 3.3965504169 -0.0930500105
C  4.6688103676 2.5963602066 0.1432000101
N  4.3192601204 1.3357001543 0.2641800344
H  2.0591402054 -1.9645801783 0.4164900184
H  3.7667903900 -1.2379300594 0.5308600664
H  1.1219301224 0.2187700123 0.0184000023
H  1.4855501652 2.9850001335 -0.2963500023
H  3.6074903011 4.3983502388 -0.2205200195
H  5.6754903793 2.9851202965 0.2157600075
