13

O  2.6226503849 -0.8175401092 -0.8624300361
C  2.1788902283 0.2297500223 -0.4117400050
C  0.7570700645 0.4144400358 -0.2372900099
C  -0.4268600345 0.5670700669 -0.0983600095
C  3.0770201683 1.3269701004 0.0225900020
C  3.9235303402 2.0440602303 -1.0049901009
C  2.8061003685 2.7735502720 -0.3192800283
H  -1.4780100584 0.6939500570 0.0181100015
H  3.5591902733 1.1267000437 0.9745801091
H  3.7972402573 1.7798001766 -2.0496802330
H  4.9429202080 2.2936701775 -0.7337800860
H  3.0668601990 3.5240602493 0.4187700450
H  1.9325901270 3.0241003036 -0.9108000398
