14

C  1.1939700842 -0.3674600124 0.1813200116
C  2.6746702194 -0.2277800143 0.2875600159
C  3.5884001255 -0.9941100478 -0.6202300191
N  3.5034303665 0.4685500264 -0.7051400542
N  2.7571902275 0.7495100498 -1.7895101309
C  3.1225402355 1.8570601940 -2.3408501148
H  0.7059400678 0.5900599957 0.3896200061
H  0.8388400674 -1.0922701359 0.9213600755
H  0.8646900654 -0.7179600596 -0.8024600744
H  2.9869303703 -0.0745900050 1.3137701750
H  3.1692502499 -1.5782201290 -1.4308801889
H  4.5112304688 -1.3802500963 -0.2074000239
H  2.5991702080 2.2145702839 -3.2403104305
H  3.9469103813 2.4897301197 -1.9625002146
