14

C  2.6735203266 0.4147200286 0.8807500601
C  2.3218703270 0.0820300058 -0.5972300768
C  2.6667902470 1.4881901741 -0.7964100242
C  2.4964101315 2.6742901802 -1.4070900679
C  2.9948801994 3.6022903919 -0.4252300262
C  3.3776102066 2.8881702423 0.7135900259
N  3.3243303299 1.5786800385 0.3675300181
H  3.3565304279 -0.2763300240 1.3798601627
H  1.8492901325 0.6511000395 1.5639001131
H  1.3087600470 -0.1988900155 -0.8812700510
H  3.0226302147 -0.6250399947 -1.0607000589
H  1.9678101540 2.9035103321 -2.3220303059
H  2.9602501392 4.6822199821 -0.4969100356
H  3.7029902935 3.2118301392 1.6929100752
