22

C  1.0906101465 0.0452200025 -0.6402000189
C  2.5943703651 0.2137600183 -0.4918600321
C  2.9671900272 1.6630702019 -0.1761200130
C  4.4842505455 1.8259800673 -0.0253800023
C  4.9036202431 3.2629303932 0.3261800408
C  6.4092001915 3.3373003006 0.5784900784
N  4.5407404900 4.1892604828 -0.7470800281
H  0.8474400640 -0.9954200983 -0.8754701018
H  0.7028800249 0.6754200459 -1.4467600584
H  0.5729900599 0.3144500256 0.2857800126
H  3.0847203732 -0.1018900052 -1.4203301668
H  2.9537501335 -0.4467600584 0.3059700131
H  2.4720301628 1.9757001400 0.7512400746
H  2.5949802399 2.3121600151 -0.9771600366
H  4.9797506332 1.5063800812 -0.9516600966
H  4.8344502449 1.1496400833 0.7652300596
H  4.3822302818 3.5737702847 1.2390000820
H  6.9814705849 3.0361402035 -0.3063800335
H  6.6954503059 2.6773700714 1.4047400951
H  6.7135105133 4.3550105095 0.8481800556
H  5.0207505226 3.9260702133 -1.6071101427
H  4.8676004410 5.1269602776 -0.5172100663
