20

C  1.0762699842 -0.2492500097 -0.4098100364
C  2.5851202011 -0.1497800052 -0.5629200935
C  3.1942803860 0.7884200215 0.4771600366
C  4.6797299385 0.9024800658 0.3009900153
C  5.5626306534 1.1578601599 1.4956001043
C  5.5912904739 -0.1808800101 0.8145501018
N  6.7611503601 -0.5616700053 0.0297600012
H  0.6635000706 -0.9370100498 -1.1550400257
H  0.6023900509 0.7278500199 -0.5501000881
H  0.8059700727 -0.6230700612 0.5833000541
H  2.8249301910 0.2036900073 -1.5729901791
H  3.0236701965 -1.1498900652 -0.4660600126
H  2.9511201382 0.4283700585 1.4846701622
H  2.7538702488 1.7872701883 0.3805900216
H  4.9387702942 1.4057301283 -0.6239300966
H  5.1112303734 1.2074000835 2.4797902107
H  6.4102206230 1.8220601082 1.3726000786
H  5.1328907013 -1.0051100254 1.3560100794
H  7.1928105354 0.2482300103 -0.4139200449
H  6.4932909012 -1.1864000559 -0.7298700809
