14

C  1.0067800283 0.1352700144 -0.3344600201
N  2.3915002346 0.0277000014 0.1052700058
C  2.9200901985 -1.3399901390 0.2299400270
C  3.1751003265 -1.9844101667 -1.0742501020
N  3.3593602180 -2.5091001987 -2.0949101448
C  3.2613801956 1.0825800896 0.0116300005
N  3.0041902065 2.3176600933 -0.2235500216
H  0.5090800524 0.9787601233 0.1548200101
H  0.4325600266 -0.7630500793 -0.0830900073
H  0.9604400992 0.2790100276 -1.4189600945
H  2.2116100788 -1.9493801594 0.8041500449
H  3.8450903893 -1.3305201530 0.8195100427
H  4.3156204224 0.7970600724 0.1757200062
H  2.0017900467 2.4618201256 -0.3432400227
