12

O  3.1651501656 -1.0007700920 -0.5453100801
C  2.3659300804 0.0231700018 0.0332400016
C  3.1706104279 1.2782200575 0.0924500078
C  3.2295801640 2.1992502213 -1.0965300798
N  2.4978003502 2.5772202015 0.1114500090
H  2.6023201942 -1.7910901308 -0.5991700888
H  2.0777201653 -0.2881800234 1.0420100689
H  1.4605300426 0.1423400193 -0.5715900660
H  4.0542302132 1.1743201017 0.7105301023
H  2.6276600361 1.9657001495 -1.9658200741
H  4.1539101601 2.7266302109 -1.2951800823
H  3.0340301991 3.2522203922 0.6601600647
