17

C  3.8475100994 -0.6923100352 1.3845801353
N  3.6871304512 -0.2044100165 0.0291900039
C  4.2186002731 0.9710100293 -0.4277600348
S  3.2799601555 1.8480801582 -1.5038100481
N  5.4678106308 1.3368401527 0.0406100042
C  6.5379505157 0.3513200283 0.1410500109
C  5.9266104698 2.7225100994 -0.0101200007
H  3.0207002163 -1.3755700588 1.6007401943
H  3.8258903027 0.1461700201 2.0871801376
H  4.7871904373 -1.2386200428 1.4835201502
H  2.7737603188 -0.3745600283 -0.3763600290
H  6.1981906891 -0.6599700451 -0.0882500038
H  6.9579906464 0.3900600076 1.1492401361
H  7.3167901039 0.6039300561 -0.5858800411
H  5.0982203484 3.4142403603 0.1649600118
H  6.3680405617 2.9189403057 -0.9921100736
H  6.6779704094 2.8798701763 0.7693001032
