14

C  1.3424299955 -1.2776700258 -0.3152000308
C  2.3558702469 -0.1749500185 -0.0576000027
C  1.6995501518 1.1846700907 0.1035000086
O  0.4828700125 1.3538401127 0.0184700023
C  2.5517899990 2.3769001961 0.3724300265
C  3.8830401897 2.3596801758 0.5096200705
H  1.8492701054 -2.2398002148 -0.4398800433
H  0.7623300552 -1.0765600204 -1.2224400043
H  0.6387800574 -1.3674801588 0.5196000338
H  3.0535900593 -0.1288600117 -0.9003100991
H  2.9100902081 -0.4093100429 0.8572000861
H  2.0007801056 3.3099303246 0.4557000101
H  4.4764800072 1.4549300671 0.4368000329
H  4.4203000069 3.2832300663 0.7055000663
