15

C  1.0357100964 -0.0268100016 0.0479300022
C  2.5517601967 0.0288800020 0.0424300022
C  3.1083602905 1.1801700592 0.8487300873
C  4.4781403542 0.6687000394 1.2224601507
C  4.2389202118 -0.8085100651 1.3206801414
O  4.9772100449 -1.6110800505 1.8665400743
O  3.0844304562 -1.1411700249 0.6691000462
H  0.6860400438 -0.8967300653 -0.5183400512
H  0.6043900251 0.8758600354 -0.3949200213
H  0.6476300359 -0.1413900107 1.0660300255
H  2.9176301956 0.0546000041 -0.9912201166
H  2.5193302631 1.3415201902 1.7603801489
H  3.1351802349 2.1212599277 0.2923000455
H  5.2134003639 0.8605000973 0.4357400537
H  4.8145899773 1.0797001123 2.1768400669
