17

C  1.0009700060 -0.0538200028 0.0030400001
C  2.5200002193 0.0000000000 0.0000000000
C  3.0020201206 1.3611700535 0.0000000000
C  3.3993003368 2.4830701351 0.0000000000
C  3.8686304092 3.8084201813 0.0000000000
C  3.0565202236 4.8722605705 -0.0060700001
C  3.5582802296 6.2798805237 -0.0059600007
H  0.6573500633 -1.0931501389 0.0027300003
H  0.5851300359 0.4420500398 -0.8809800744
H  0.5887600780 0.4403100312 0.8897300959
H  2.8955602646 -0.5327900648 -0.8808200955
H  2.8991501331 -0.5341000557 0.8784900308
H  4.9464902878 3.9468803406 0.0056400006
H  1.9769601822 4.7373504639 -0.0119700013
H  4.6545305252 6.3268103600 0.0032400002
H  3.1918902397 6.8103303909 0.8787900805
H  3.2050201893 6.8065605164 -0.8968200684
