19

N  3.2362301350 0.9912601113 2.5316803455
C  2.8080701828 1.8115601540 1.3963600397
C  3.3355102539 1.2814700603 0.0538100041
C  4.8491301537 1.3047600985 -0.0903200060
C  5.5411701202 0.1639500111 -0.2625900209
C  5.5413403511 2.6407203674 -0.0380600058
N  5.0637102127 3.5167200565 -1.0976999998
H  2.9784002304 1.4584001303 3.3997802734
H  4.2538604736 0.9229800105 2.5291001797
H  3.1268002987 2.8478901386 1.5554901361
H  1.7127001286 1.8150501251 1.3709601164
H  2.8924300671 1.8739800453 -0.7549500465
H  2.9569802284 0.2608000338 -0.0910400078
H  5.0421304703 -0.7994800210 -0.2983600199
H  6.6218209267 0.1606300026 -0.3720500171
H  6.6270503998 2.5250203609 -0.1380000114
H  5.3673305511 3.1141602993 0.9338700771
H  5.2675604820 3.0762202740 -1.9947201014
H  5.6048407555 4.3799400330 -1.0818001032
