12

C  0.9317800999 0.0243800003 -0.0078800004
C  2.4124901295 -0.0094900010 -0.0008900000
C  3.2774503231 1.0660901070 0.0028200003
O  4.5689802170 0.6490401030 0.0088800006
C  4.5441803932 -0.7069800496 0.0090100002
C  3.2469201088 -1.1628000736 0.0030800002
H  0.5571200252 1.0522900820 0.0021900004
H  0.5342800021 -0.4907000363 0.8717800379
H  0.5434000492 -0.4702600539 -0.9031800628
H  3.1362800598 2.1383900642 0.0019100002
H  5.5098505020 -1.1926201582 0.0135400007
H  2.9384503365 -2.1990401745 0.0017900001
