21

C  3.1954801083 -0.7449600697 1.6224101782
C  2.7360100746 -0.1103300080 0.3067300022
C  1.2239100933 -0.3056000173 0.1462200135
C  3.1492803097 1.3795300722 0.1435400099
C  2.5544002056 2.3062601089 1.2107201815
C  4.6788201332 1.5338701010 0.0873500109
O  5.0470705032 2.8771603107 -0.1967500150
H  4.2843599319 -0.7195100188 1.7216501236
H  2.8940501213 -1.7976701260 1.6659600735
H  2.7589201927 -0.2420300245 2.4912803173
H  3.2132601738 -0.6719800234 -0.5084300041
H  0.6654101014 0.1312600076 0.9796900749
H  0.9775400758 -1.3722100258 0.1102800071
H  0.8672100902 0.1483200043 -0.7839800715
H  2.7539701462 1.7286100388 -0.8206800222
H  2.9369101524 2.0723502636 2.2088901997
H  1.4624601603 2.2413301468 1.2364401817
H  2.8021402359 3.3523702621 0.9995300770
H  5.1062903404 0.8966900706 -0.6931800246
H  5.1451401711 1.2639501095 1.0390100479
H  4.6140899658 3.1339602470 -1.0285401344
