13

C  2.7082400322 -1.1696701050 0.3069400191
C  2.2453601360 0.0787400082 0.1575700194
N  2.9991202354 1.2508000135 0.0925900117
C  2.4949400425 2.5256500244 -0.0618900061
C  3.5768003464 3.3716402054 -0.0747100040
N  4.7397999763 2.6706502438 0.0662700012
C  4.3680400848 1.4129501581 0.1636000127
H  2.0177600384 -2.0080101490 0.3438300192
H  3.7638103962 -1.4039500952 0.3963100314
H  1.1722000837 0.2322800159 0.0748900026
H  1.4342901707 2.7134201527 -0.1470700204
H  3.5769302845 4.4493303299 -0.1782700121
H  5.0421705246 0.5767800808 0.2866200209
