17

C  1.0064700842 0.0260800011 0.0855200067
C  2.4941000938 0.0056400006 0.0106200008
C  3.2636303902 -1.0858601332 -0.1094100103
C  4.7201504707 -0.7524300814 -0.1382000148
C  4.7428402901 0.7755600214 -0.2195900232
C  3.3218202591 1.1940101385 0.0570800044
C  2.9256601334 2.4450201988 0.3161500096
H  0.5877300501 -0.9823700786 -0.0010000000
H  0.5870200396 0.6284100413 -0.7271800637
H  0.6705600023 0.4440800250 1.0399200916
H  2.8907802105 -2.0997700691 -0.1564200073
H  5.2101502419 -1.1097801924 0.7740700841
H  5.2190504074 -1.2033301592 -1.0014600754
H  5.0374603271 1.0929901600 -1.2272200584
H  5.4506502151 1.2000100613 0.4995800257
H  3.6400704384 3.2615702152 0.3345300257
H  1.8895400763 2.6897902489 0.5228500366
