14

C  3.1951503754 -1.1084800959 0.5029200315
O  2.4168703556 0.0585200042 0.2760900259
C  3.0569903851 1.2262700796 0.1616800129
C  2.5151102543 2.4786703587 -0.0489600040
C  3.5736501217 3.4166901112 -0.1020400077
C  4.7434802055 2.7159202099 0.0770700052
N  4.4217405319 1.3919000626 0.2354900241
H  2.5138800144 -1.9612901211 0.5732499957
H  3.7448902130 -1.0350100994 1.4471100569
H  3.8806302547 -1.2901501656 -0.3314300478
H  1.4584701061 2.6855201721 -0.1526000202
H  3.4889903069 4.4841103554 -0.2543400228
H  5.7744903564 3.0422000885 0.1054600030
H  5.0936503410 0.6534900665 0.3836200237
