17

C  2.6457202435 -0.4719200432 1.5088000298
C  2.6091301441 0.0191800017 0.0693700016
C  3.0523903370 1.4350701571 -0.0624400042
C  4.1253504753 1.9026401043 -0.6929100156
O  4.3078303337 3.2668602467 -0.6606200933
C  3.0966503620 3.7632501125 -0.0527500026
C  2.3218102455 2.5817902088 0.5287200809
H  2.3459300995 -1.5239201784 1.5555801392
H  1.9604201317 0.0993600041 2.1438400745
H  3.6531302929 -0.3882900476 1.9306201935
H  1.5912600756 -0.0790600106 -0.3253400326
H  3.2458100319 -0.6321400404 -0.5415700674
H  4.8951005936 1.3564200401 -1.2127400637
H  2.5130002499 4.2764000893 -0.8262800574
H  3.3584802151 4.4949502945 0.7188700438
H  1.2684901953 2.6163401604 0.2351500243
H  2.3829700947 2.5728001595 1.6217501163
