15

C  4.4575004578 -0.8936001062 0.5528200865
O  3.2783803940 -0.1360400170 0.2996500432
C  3.4144802094 1.2229700089 0.1993000060
C  4.5293803215 1.9620600939 0.2723100185
C  4.5417900085 3.4450302124 0.1600800157
C  3.2445302010 4.2099103928 0.1331500113
O  5.6286406517 4.0177502632 0.0885600075
H  4.1723804474 -1.9476101398 0.6206600666
H  4.9102301598 -0.6036300063 1.5068501234
H  5.1742906570 -0.7879500985 -0.2679500282
H  2.4266500473 1.6413100958 0.0377900042
H  5.5119400024 1.5274200439 0.4123600423
H  2.5916001797 3.8863503933 0.9481400847
H  2.7521803379 4.0762600899 -0.8331000209
H  3.4527504444 5.2742805481 0.2795700133
