13

C  0.7267000675 -1.2407400608 0.4944200516
O  -0.6361400485 -1.5568201542 0.1315700114
C  -1.5383400917 -0.5426900387 -0.0124600008
C  -1.2389100790 0.7592100501 -0.0420700051
C  0.1313200146 1.2433001995 0.0475000069
O  1.1513200998 0.7951700091 -0.8627600670
C  1.1326500177 0.1977200210 0.4399000406
H  1.3852500916 -1.8412301540 -0.1437500119
H  0.8592301011 -1.6028201580 1.5213000774
H  -2.5414102077 -0.9301200509 -0.1359500140
H  -2.0320501328 1.4877901077 -0.1785100251
H  0.2468400151 2.2370002270 0.4631700516
H  1.9430302382 0.4445800185 1.1095601320
