14

C  0.8708000779 0.1488300115 -0.0440000035
C  2.3716201782 0.0318800025 -0.0661600009
C  2.9111101627 -1.3720101118 -0.1439100057
O  2.5553100109 -1.9342201948 -1.3972400427
C  3.1390202045 1.1379899979 0.0000000000
C  4.5450205803 1.1379899979 0.0000000000
N  5.6960306168 1.1379899979 0.0000000000
H  0.5363700390 1.1844800711 0.0861700028
H  0.4558800161 -0.4365700185 0.7843500376
H  0.4401900470 -0.2203400135 -0.9812901020
H  2.5016901493 -1.9939901829 0.6599300504
H  4.0003705025 -1.4169000387 -0.0612000078
H  1.6325502396 -2.2297501564 -1.3337302208
H  2.6736102104 2.1169900894 0.0555900037
