18

C  0.9857800603 -0.1168100014 0.0047700005
C  2.5053203106 -0.0643700063 0.0108600007
C  3.0151803493 1.3739300966 -0.0025500003
C  4.5383105278 1.4317601919 0.0009300000
O  4.9342904091 2.8021900654 0.0029900002
C  6.3487105370 2.9393403530 0.0007300000
H  0.6422000527 -1.1558800936 0.0185500011
H  0.5804800391 0.3632400334 -0.8916600347
H  0.5722600818 0.3895000219 0.8828300834
H  2.8872902393 -0.6037800312 -0.8637700677
H  2.8791701794 -0.5836500525 0.9010700583
H  2.6290202141 1.9214901924 0.8661301136
H  2.6343102455 1.9037501812 -0.8845000863
H  4.9388003349 0.9360600710 -0.8910700679
H  4.9349603653 0.9355500340 0.8943100572
H  6.5917205811 4.0054202080 0.0143500017
H  6.7747702599 2.4953403473 -0.9042700529
H  6.7814106941 2.4710500240 0.8902700543
