17

C  0.9910400510 0.0352400057 -0.0827700049
C  2.5071802139 -0.0084000006 0.0567600019
C  2.9873101711 -1.3208601475 0.7169500589
N  3.5543203354 -0.8404501081 1.9581601620
C  3.5176401138 -1.6593601704 3.1434803009
C  3.4476401806 0.5122200251 1.9794901609
N  2.9236500263 1.1142200232 0.9531500936
H  0.6358300447 -0.7707300186 -0.7323400378
H  0.6692200303 0.9904600978 -0.5106100440
H  0.5008800626 -0.0691200048 0.8920800686
H  2.9755001068 0.1207600087 -0.9259700179
H  3.7695703506 -1.7926101685 0.1110100076
H  2.1767802238 -2.0411100388 0.8681600094
H  3.5409302711 -2.7238101959 2.8884301186
H  2.6074202061 -1.4657001495 3.7208001614
H  4.3836202621 -1.4483001232 3.7784702778
H  3.8143503666 1.0301101208 2.8794603348
