15

C  0.9648200274 -0.0739900097 0.1258100122
C  2.4739201069 -0.0023400001 -0.0573700070
C  3.0199203491 -1.1786201000 -0.8962400556
N  3.5951802731 -0.6133700609 -2.1518301964
C  3.4646003246 0.6676400304 -1.9887402058
N  2.8064801693 1.1497900486 -0.8886800408
O  3.5546402931 2.1210000515 -0.2183700204
H  0.5971800685 0.8104800582 0.6567000151
H  0.6862500310 -0.9607500434 0.7036300898
H  0.4448300302 -0.1178400069 -0.8379600644
H  2.9711003304 0.0363299996 0.9192900658
H  2.2460203171 -1.9151202440 -1.1422901154
H  3.8167700768 -1.6943501234 -0.3502100110
H  3.8377604485 1.4245400429 -2.6979300976
H  2.9107501507 2.8456702232 -0.0957400054
