12

C  2.8890902996 -1.1084800959 0.3713100255
C  2.2886002064 0.0640700012 0.1311100125
C  3.0092303753 1.2884202003 0.0641500056
N  2.4672601223 2.4771702290 -0.1702500135
C  3.5099704266 3.3666300774 -0.1480600089
C  4.6766204834 2.6986901760 0.1012600064
O  4.3818302155 1.3805900812 0.2389600277
H  2.3085701466 -2.0242402554 0.4157200456
H  3.9608101845 -1.1890001297 0.5283900499
H  1.2159301043 0.1139100045 -0.0219600014
H  3.3615202904 4.4237599373 -0.3110000193
H  5.7140903473 2.9776601791 0.2051400095
