14

N  1.1730401516 0.1524500102 0.4919700325
C  2.4148702621 0.2152700126 0.1545800120
N  3.2662603855 1.2692000866 0.3286700249
C  2.7074401379 2.5917203426 0.3337900341
C  3.9522204399 3.0488603115 -0.4283100069
C  4.1887001991 1.5675101280 -0.7273100615
H  0.8013400435 -0.7738400698 0.2563900054
H  2.9074301720 -0.6598500609 -0.3062300086
H  2.5876700878 3.0001301765 1.3400000334
H  1.7769001722 2.6898603439 -0.2355900258
H  3.7684104443 3.6839201450 -1.2987401485
H  4.7213802338 3.5077702999 0.2025600225
H  3.8460404873 1.2450600863 -1.7164301872
H  5.1969604492 1.1961901188 -0.5304700732
