19

C  1.0104600191 -0.1110100076 -0.0297500025
C  2.5309703350 -0.1167000160 0.0113500012
C  3.0950102806 1.3085501194 0.0211900026
C  4.6332702637 1.3461800814 -0.0036700002
C  5.1232905388 2.7839300632 -0.1860300153
C  5.2064104080 0.7816600800 1.2354900837
C  5.6735205650 0.3184000254 2.2394301891
H  0.6276700497 -1.1364001036 -0.0265500024
H  0.6440900564 0.3853800297 -0.9339500666
H  0.5966000557 0.4088800251 0.8401900530
H  2.9116501808 -0.6615900397 -0.8602600694
H  2.8558201790 -0.6625400782 0.9039700627
H  2.7187001705 1.8418401480 0.9042100310
H  2.7106101513 1.8418800831 -0.8580000401
H  4.9886002541 0.7568000555 -0.8583200574
H  4.7963204384 3.4267704487 0.6395400763
H  4.7417306900 3.2108302116 -1.1196401119
H  6.2179503441 2.8236701488 -0.2226400226
H  6.0867905617 -0.0951900110 3.1308803558
