13

O  0.8881600499 1.0667301416 -0.9831000566
N  2.2280402184 0.6654900908 -1.0660001040
C  2.9211702347 1.3566701412 -0.2252600193
C  4.3706402779 1.0898799896 -0.1433600038
C  5.2792005539 1.5217701197 -1.2689400911
C  5.3353204727 2.2338800430 0.0509000048
H  0.4612700641 0.4983300567 -1.6516400576
H  2.4877400398 2.1262903214 0.4375100136
H  4.6168403625 0.1534800082 0.3471300304
H  4.8382401466 2.0392401218 -2.1134402752
H  6.0992007256 0.8643500805 -1.5329201221
H  6.2005505562 2.0649101734 0.6820000410
H  4.9467206001 3.2451102734 0.0939400047
