15

C  0.9613300562 -0.0558000058 0.2274800092
C  2.4124901295 0.0165400002 -0.2218800038
O  2.5195503235 1.0963900089 -1.1507000923
C  3.8534305096 1.2282501459 -1.6299700737
C  4.3810801506 -0.0960000083 -2.0602400303
C  3.8073503971 -1.2239900827 -1.6388300657
O  2.7503700256 -1.2671000957 -0.7720100284
H  0.6510200500 0.8771100640 0.7081600428
H  0.8014700413 -0.8910000920 0.9164000750
H  0.3034100235 -0.2121700197 -0.6353900433
H  3.0509302616 0.2124200165 0.6504800916
H  4.4889106750 1.6692402363 -0.8543000221
H  3.8286104202 1.9160501957 -2.4806203842
H  5.2233805656 -0.1255200058 -2.7424201965
H  4.1096405983 -2.2166101933 -1.9449300766
