11

C  1.0000001192 0.0000000000 0.0000000000
C  2.4440002441 0.0000000000 0.0000000000
C  3.6341602802 0.0000000000 0.0000000000
C  5.2868905067 -0.0000000000 -0.0000000000
C  6.5152702332 -0.0000000000 -0.0000100000
C  7.9842610359 -0.0000000000 -0.0000000000
C  9.2047710419 0.0000000000 0.0000000000
H  0.4084800184 0.9429800510 0.0856700018
H  0.4947200418 -0.4180700481 0.8914800882
H  0.3775000274 -0.4349900186 -0.8126000762
H  10.2393712997 0.0000000000 0.0000000000
