8

C  -0.0559200048 0.8821500540 -0.0657200068
C  -0.7645800114 -0.4430000186 -0.0651200041
N  0.6919201016 -0.3701600432 -0.0806000009
H  -0.0414400026 1.4538801908 -0.9850200415
H  -0.0250900034 1.4580901861 0.8499500155
H  -1.2327500582 -0.7732400298 -0.9841300845
H  -1.2264901400 -0.7878400683 0.8510900736
H  1.0788300037 -0.5766800046 0.8424600959
