17

C  3.5018603802 3.1052501202 -4.1447105408
O  2.6514103413 2.8562703133 -3.0209403038
C  3.2437503338 2.9455702305 -1.8053500652
N  4.4876403809 3.2424302101 -1.6326100826
N  4.8485403061 3.2793102264 -0.3186700046
C  4.6754403114 4.5850400925 0.3385100067
C  6.2217502594 2.8158402443 -0.0732000098
H  2.8989303112 3.0045101643 -5.0514702797
H  4.3101301193 2.3685302734 -4.1841702461
H  3.9006803036 4.1234402657 -4.1070704460
H  2.5141801834 2.7310101986 -1.0072600842
H  3.6370303631 4.9228901863 0.2468700260
H  5.3220500946 5.3489503860 -0.1080400050
H  4.8929204941 4.5170903206 1.4102201462
H  6.3563604355 1.8095700741 -0.4851000309
H  6.4294705391 2.7507402897 1.0006400347
H  6.9606003761 3.4763002396 -0.5388500690
