17

C  0.8899601102 0.0036000002 0.2458100170
C  2.3492701054 0.0140200015 -0.0141400006
C  3.1518304348 1.0832600594 -0.1627900153
C  4.5565304756 0.7363300920 -0.4207800329
C  5.3624200821 -0.0013100002 0.6107100844
C  4.5777201653 -0.7817700505 -0.4122400582
C  3.1603600979 -1.2547500134 -0.1485400051
H  0.4976700544 -1.0193101168 0.2329600155
H  0.3546200097 0.5737600327 -0.5208200216
H  0.6686300635 0.4342200458 1.2276901007
H  2.8164300919 2.1116502285 -0.1058100089
H  5.0601902008 1.2535500526 -1.2274600267
H  6.4425902367 0.0163200013 0.5131200552
H  5.0190305710 -0.0013000001 1.6397601366
H  5.0943303108 -1.3097401857 -1.2000300884
H  3.1172301769 -1.8528001308 0.7668900490
H  2.7974402905 -1.8527700901 -0.9904800653
