17

C  -1.0896500349 -0.0061200005 -1.0239100456
C  -0.6161800623 1.0440100431 0.0342300013
C  -1.0372800827 -0.0338600054 1.0864701271
C  -0.5556700230 -1.0608800650 0.0049700006
C  0.9347000718 -1.1863801479 -0.0336100012
C  1.6257101297 -0.0338700041 -0.0356300026
C  0.9037401080 1.2940201759 -0.0003600000
H  -2.1753101349 -0.0366300046 -1.1801000834
H  -0.6028200388 0.0283900015 -2.0032601357
H  -1.1959601641 1.9716900587 0.0607800037
H  -0.5024400353 -0.0248500016 2.0410201550
H  -2.1138601303 -0.0692200065 1.2954500914
H  -1.0663300753 -2.0273702145 0.0049300003
H  1.4094001055 -2.1601903439 -0.0581300035
H  2.7109601498 -0.0346500017 -0.0625100061
H  1.1685700417 1.8803400993 -0.8866700530
H  1.2126401663 1.8571801186 0.8867000937
