14

C  -0.7985301018 -1.0010800362 -0.1242900044
C  -1.1876001358 0.4217700362 0.2284300178
C  0.0219000019 1.2158000469 -0.2156400084
N  1.1390800476 0.3672200143 0.1912800223
C  0.7194700241 -1.0222600698 -0.0019800002
H  -1.2845700979 -1.7325001955 0.5281900167
H  -1.0907500982 -1.2190001011 -1.1589200497
H  -1.3331500292 0.5145000219 1.3117600679
H  -2.1078002453 0.7384100556 -0.2705900073
H  0.0208800007 1.3516200781 -1.3034701347
H  0.0687600076 2.1986501217 0.2611400187
H  1.9727600813 0.5757400393 -0.3552800119
H  1.1725001335 -1.4523700476 -0.9014900327
H  1.0361200571 -1.6221200228 0.8570600152
