14

C  0.9081701040 0.0867700130 -0.0083100004
C  2.3854401112 0.0390000008 -0.0026100001
C  3.2655503750 1.0950000286 0.0063000005
O  4.5384001732 0.6350300908 0.0087700011
N  4.5272402763 -0.7459200621 0.0014700001
C  3.2370603085 -1.0999301672 -0.0052700005
C  2.8718502522 -2.5349702835 -0.0144300014
H  0.5425200462 1.1186801195 -0.0000000000
H  0.5044700503 -0.4216200113 0.8730400801
H  0.5119700432 -0.4047500193 -0.9025501013
H  3.1587502956 2.1696500778 0.0114800008
H  1.7864600420 -2.6747701168 -0.0106000006
H  3.2785601616 -3.0402102470 0.8681500554
H  3.2708101273 -3.0265402794 -0.9081301093
