14

O  1.4033501148 0.2886800170 0.7185000181
C  2.4458000660 -0.0155400010 0.1629900187
C  2.9263601303 -1.4119700193 -0.2005300224
N  4.1961402893 -1.2430900335 -0.9568001032
C  4.5910902023 0.1729300022 -0.8546800613
C  3.8581502438 1.2245901823 -1.6324501038
C  3.4864904881 0.9667801261 -0.1979800165
H  2.1822702885 -1.9200401306 -0.8173800707
H  3.1102502346 -1.9673402309 0.7238200307
H  4.9040002823 -1.8657201529 -0.5650000572
H  5.6180801392 0.3774000108 -0.5706400275
H  4.3847703934 2.1449601650 -1.8592001200
H  3.1730301380 0.9114000201 -2.4123501778
H  3.7544801235 1.6987701654 0.5521300435
