12

O  0.8449600339 0.0358000025 0.0341400020
C  2.0756900311 0.0043600001 0.0522500053
C  2.9196102619 1.2467000484 -0.0544700064
O  4.1178503036 0.9977800846 0.6764600277
N  4.9216003418 0.0072000003 0.0640200078
C  4.2809906006 -1.0995700359 -0.1522100121
C  2.8261303902 -1.2923901081 0.1283200085
H  2.4005002975 2.0860500336 0.4140800536
H  3.1412901878 1.4757500887 -1.1008601189
H  4.8407502174 -1.9658200741 -0.5418300033
H  2.4250602722 -1.9771201611 -0.6250500679
H  2.7130000591 -1.7340701818 1.1217801571
