16

O  0.7799100280 1.6307001114 -0.3710200489
N  2.1242899895 1.9976202250 -0.4943800271
C  2.8620002270 1.0470300913 -0.0186200012
C  4.4034004211 1.1324300766 -0.0178600010
C  5.1135807037 2.1510202885 -0.9507400990
C  6.1597504616 2.3421103954 0.1644200087
C  5.0771703720 1.8853901625 1.1604800224
H  0.3180299997 2.3997702599 -0.7549000382
H  2.4194102287 0.1216200069 0.3903200328
H  4.8293204308 0.1245800033 -0.1402600110
H  4.5391206741 3.0589103699 -1.1683800220
H  5.4988307953 1.7438300848 -1.8894201517
H  7.0108304024 1.6555202007 0.0923800096
H  6.5320906639 3.3604202271 0.2992800176
H  5.4312806129 1.2580301762 1.9828901291
H  4.4790401459 2.7070403099 1.5718702078
