16

N  1.0171800852 0.0389300026 0.2068200260
C  2.4482700825 -0.0624400042 -0.0435700044
C  2.8362801075 -1.4867900610 -0.4859000444
C  2.6662302017 -1.4946601391 -2.0120501518
C  3.0234603882 -0.0959300101 -2.4102301598
O  1.9715502262 0.8655900359 -2.3386301994
C  2.8592703342 0.7902400494 -1.2154200077
H  0.7615000606 1.0164101124 0.3332100213
H  0.7772501111 -0.4491000473 1.0662200451
H  2.9999804497 0.2232100219 0.8578701019
H  2.2596099377 -2.2765402794 0.0062200003
H  3.8946003914 -1.6550900936 -0.2454900295
H  3.3251402378 -2.2334201336 -2.4776401520
H  1.6321301460 -1.7249802351 -2.2911002636
H  3.8457303047 0.0347100012 -3.0935301781
H  3.5622203350 1.5827500820 -1.0205100775
