15

C  1.0001400709 -0.0547200032 0.0042200005
C  2.5200002193 0.0000000000 0.0000000000
C  3.0020201206 1.3611700535 0.0000000000
C  3.3993003368 2.4830701351 0.0000000000
C  3.8559501171 3.7726004124 0.0000000000
C  4.2532305717 4.8945002556 0.0000000000
C  4.7352504730 6.2556700706 0.0000000000
H  0.6577700377 -1.0933800936 0.0027500002
H  0.5853700638 0.4415200353 -0.8800200820
H  0.5888200402 0.4395200312 0.8901800513
H  2.8954002857 -0.5327100158 -0.8809100986
H  2.8993000984 -0.5341300964 0.8782700896
H  3.9415802956 6.9547805786 -0.2809000313
H  5.5587205887 6.3821206093 -0.7095701098
H  5.1000905037 6.5445308685 0.9904701114
