19

C  2.1969301701 -0.6342400312 1.4541600943
C  2.6770701408 -0.1930200160 0.0781700015
O  1.5901100636 -0.2673500180 -0.8418700695
C  3.1772003174 1.2238401175 0.0937600061
C  4.4528203011 1.6523001194 0.0057200002
C  5.6616401672 0.7627300620 -0.0943500027
C  4.7696199417 3.1255803108 0.0067400006
H  3.0121002197 -0.6208700538 2.1838600636
H  1.7887101173 -1.6493802071 1.4057301283
H  1.3898401260 0.0097400006 1.8205201626
H  3.4331603050 -0.8934000731 -0.2847500145
H  0.8857500553 0.3154300153 -0.5141500235
H  2.3955800533 1.9771101475 0.1793200225
H  5.4331502914 -0.2976100445 0.0306800026
H  6.3853106499 1.0246100426 0.6849300265
H  6.1434707642 0.8912200928 -1.0688101053
H  3.8689002991 3.7453603745 0.0670000017
H  5.2995400429 3.3991301060 -0.9115900397
H  5.4038200378 3.3766803741 0.8631600738
