12

N  1.0000001192 0.0000000000 0.0000000000
C  2.1510102749 0.0000000000 0.0000000000
C  3.5950102806 0.0000000000 0.0000000000
O  4.1192803383 -1.1965800524 0.6315900087
C  4.6049203873 -0.8446800113 1.9397101402
C  4.7137403488 0.6328300834 1.9300101995
C  4.1405801773 1.1161600351 0.8269500136
H  3.9974203110 0.0372700021 -1.0169301033
H  5.5717206001 -1.3294001818 2.0963802338
H  3.8921704292 -1.1932200193 2.6938700676
H  5.1652503014 1.2182101011 2.7169203758
H  4.0579104424 2.1618602276 0.5699300170
