19

N  3.2068502903 -0.9570500851 -0.1168500111
C  2.8236303329 -0.1504900008 1.0462501049
C  2.7119302750 1.3342500925 0.6826700568
O  4.0076103210 1.8287301064 0.3195500374
C  3.9444503784 3.2085204124 -0.0638100058
C  5.3474402428 3.6883103848 -0.4522100389
N  5.8369402885 2.9959902763 -1.6480600834
H  3.5103602409 -1.8771401644 0.1972100139
H  4.0242705345 -0.5139500499 -0.5420200229
H  3.5851902962 -0.2796900272 1.8234201670
H  1.8673301935 -0.5144400001 1.4331901073
H  2.3463304043 1.8937301636 1.5511101484
H  2.0124101639 1.4733201265 -0.1501000077
H  3.5807402134 3.8001503944 0.7837700844
H  3.2514700890 3.3295202255 -0.9051500559
H  6.0416903496 3.4887003899 0.3721700311
H  5.3354701996 4.7654600143 -0.6428101063
H  5.7077403069 1.9929502010 -1.4966601133
H  6.8406805992 3.1454601288 -1.7359901667
