18

C  1.0156500340 -0.1586700082 0.3011500239
N  2.4120101929 0.1443700045 0.0044600004
C  2.9306402206 1.1703201532 0.9453300834
C  4.2219204903 0.3381700218 1.0383200645
C  3.3153202534 -0.8539600968 0.6428400278
C  3.8784604073 -1.7797001600 -0.3650400341
C  4.7863001823 -2.6972503662 -0.0093500009
H  0.6943800449 -1.0355800390 -0.2707900107
H  0.3809300363 0.6792400479 -0.0063000005
H  0.8217800856 -0.3573600352 1.3618701696
H  2.3984801769 1.2607101202 1.9010701180
H  3.0500700474 2.1678702831 0.5126300454
H  4.9836306572 0.6190500259 0.3004600108
H  4.6832404137 0.2843600214 2.0278902054
H  2.8912603855 -1.3775401115 1.5119301081
H  3.5460002422 -1.7069700956 -1.3967801332
H  5.1397104263 -2.7917103767 1.0126200914
H  5.2012100220 -3.3760001659 -0.7482200861
