13

C  1.0263100863 -0.0623300038 0.0060500004
C  2.5027003288 0.0903700069 -0.0148800006
C  3.2146604061 1.2741900682 0.0079500005
S  4.8947105408 0.9459800720 -0.0326400027
C  4.5551099777 -0.7353900671 -0.0863100067
N  5.5374503136 -1.6486301422 -0.1296000183
N  3.2846002579 -1.0520700216 -0.0615000054
H  0.5237000585 0.9095200300 0.0231200028
H  0.7171601057 -0.6231700778 0.8932100534
H  0.6899400353 -0.6054300070 -0.8822700977
H  2.8393101692 2.2865400314 0.0448300056
H  5.2622203827 -2.5923702717 0.1146200076
H  6.4514703751 -1.3761900663 0.2061800212
