13

N  2.5242602825 -0.7298500538 -1.3383702040
C  2.4369301796 -0.0797000080 -0.0263200011
C  2.9695501328 1.3272500038 -0.0324900039
N  2.2342002392 2.4091100693 0.1356000155
C  3.0351202488 3.5328302383 0.0808700025
C  4.3787803650 3.2986001968 -0.1070100069
S  4.6612801552 1.6125700474 -0.2234900147
H  2.1939802170 -1.6888301373 -1.2543700933
H  3.5026302338 -0.7804901004 -1.6175200939
H  2.9790701866 -0.6783300638 0.7150600553
H  1.3857501745 -0.0610200018 0.2826200426
H  2.5809900761 4.5100107193 0.1876000166
H  5.1830606461 4.0150704384 -0.1784200072
