14

C  1.0265300274 -0.0115900012 -0.0016500001
C  2.5382401943 -0.0112500014 0.0841300115
C  3.1040000916 1.1164400578 0.9113800526
O  4.4064803123 0.6415700316 1.2528901100
C  4.2492203712 -0.7777701020 1.3464801311
O  3.0023701191 -1.1777700186 0.7679400444
H  0.6786100268 -0.8763200641 -0.5773600340
H  0.6556800604 0.8999601007 -0.4793500304
H  0.5752000213 -0.0977900103 0.9930000901
H  2.9800002575 -0.0173000004 -0.9192800522
H  2.5470101833 1.2741401196 1.8426001072
H  3.1714203358 2.0621201992 0.3671600223
H  5.0728106499 -1.2666800022 0.8186100125
H  4.2664804459 -1.0779199600 2.3983001709
