18

C  1.0221700668 -0.0166600011 -0.0301100034
C  2.5262801647 -0.0466300026 0.0217800029
C  3.1476700306 -1.4175500870 0.0247400012
N  3.4312803745 -1.8320801258 -1.3439401388
C  3.2369101048 1.1008601189 0.0306600034
C  4.7258806229 1.2231900692 0.0237400029
O  5.1563501358 1.2733701468 -1.3257100582
H  0.6280100346 1.0049700737 -0.0489900038
H  0.6026000381 -0.5176100135 0.8486600518
H  0.6603400707 -0.5275100470 -0.9282100201
H  2.4776501656 -2.1398501396 0.5052100420
H  4.0740003586 -1.4357200861 0.6068200469
H  2.5502200127 -1.9234101772 -1.8477101326
H  3.8347702026 -2.7683100700 -1.3240401745
H  2.7095701694 2.0522301197 -0.0078200009
H  5.2333703041 0.3977300525 0.5288600326
H  5.0293107033 2.1473200321 0.5248900652
H  4.7744803429 0.4805700183 -1.7508901358
