18

C  0.9296200871 -0.1097900122 0.1721200049
C  2.4370203018 0.0182700027 -0.0307900030
C  2.8513002396 -0.0230400022 -1.5105600357
O  2.3751702309 1.1331701279 -2.1926903725
C  3.1116402149 1.1175500154 0.8314000964
C  4.1364703178 0.0388100035 1.2052201033
N  3.1583802700 -0.9908201098 0.8009100556
H  0.6651500463 -0.1670000106 1.2346001863
H  0.5406700373 -1.0099500418 -0.3154900074
H  0.4037300348 0.7545400858 -0.2456700206
H  2.4555902481 -0.9126600623 -2.0119602680
H  3.9398503304 -0.0373600014 -1.6236301661
H  1.4099200964 1.0491900444 -2.2763900757
H  2.5147001743 1.4682700634 1.6823000908
H  3.5111603737 1.9856500626 0.3004500270
H  5.0445604324 0.0502900034 0.5922300816
H  4.4231405258 0.0063500004 2.2597403526
H  3.5588903427 -1.7792501450 0.2952000201
