14

O  2.7031102180 -0.7879500985 -1.1781001091
C  2.2685601711 -0.0956700072 -0.0154000008
C  2.9072701931 1.2885001898 0.0270100012
C  4.4338002205 1.2533501387 0.0064500007
C  5.0405106544 0.6799900532 1.2631601095
O  4.4101405144 0.3970000148 2.2769804001
H  2.2664003372 -1.6575300694 -1.1642700434
H  2.5281701088 -0.6909100413 0.8641000986
H  1.1789001226 -0.0005800001 -0.0578600056
H  2.5498201847 1.8265100718 0.9129700661
H  2.5762102604 1.8526201248 -0.8540100455
H  4.8217706680 2.2726702690 -0.0977300107
H  4.8036599159 0.6708300114 -0.8433400989
H  6.1369204521 0.5569000244 1.2353800535
