15

C  0.9855901003 -0.0198900010 -0.0357000045
C  2.5200002193 0.0000000000 0.0000000000
C  3.0212800503 -0.7419500947 1.2446401119
N  3.0379500389 -0.6856099963 -1.1854701042
C  3.0020201206 1.3611700535 0.0000000000
C  3.3993003368 2.4830701351 0.0000000000
H  0.5958500504 0.4921600521 -0.9237900972
H  0.5632700324 0.4863300323 0.8404400349
H  0.5975900292 -1.0449200869 -0.0443700030
H  2.6664502621 -0.2592200339 2.1631102562
H  4.1173505783 -0.7575700879 1.2913299799
H  2.6721901894 -1.7811501026 1.2614600658
H  2.7121100426 -0.1989800185 -2.0189702511
H  2.6517302990 -1.6255100965 -1.2337701321
H  3.7635202408 3.4842002392 -0.0031800002
