17

C  0.8993501067 -0.5534700751 0.0045200000
C  2.3563201427 -0.2127000242 0.0844700113
C  2.9398601055 1.0008701086 -0.0449100062
C  2.1025102139 2.1986901760 -0.1126900092
C  2.4322903156 3.3179001808 -0.7714600563
C  4.3963103294 1.1104500294 0.0986800045
C  5.3089303970 0.2324800193 -0.3400900066
H  0.7680800557 -1.4405701160 -0.6240800023
H  0.2900100350 0.2411300242 -0.4337900281
H  0.5141600370 -0.7840100527 1.0022400618
H  2.9852001667 -1.0857901573 0.2516600192
H  1.1528301239 2.1726403236 0.4170900285
H  3.3598902225 3.4070501328 -1.3277400732
H  1.7626601458 4.1716604233 -0.7758800387
H  4.7470502853 2.0193302631 0.5855200887
H  5.0363702774 -0.6769700646 -0.8643200397
H  6.3673505783 0.4225700200 -0.1930300146
