11

C  0.8554500341 0.1544900090 -0.0044500004
C  2.0537402630 0.0907800049 -0.0009200001
C  3.4781401157 0.0140500013 0.0033900004
C  4.3266801834 1.1005700827 0.0050300001
C  5.6996607780 0.7129999995 0.0096300012
C  5.8470606804 -0.6565000415 0.0112700006
S  4.3377699852 -1.4632600546 0.0072500003
H  -0.2091200203 0.2068800181 -0.0075700004
H  3.9828002453 2.1279201508 0.0030900002
H  6.5343704224 1.4032901525 0.0116500007
H  6.7668204308 -1.2253701687 0.0146400016
