15

C  0.9256200790 -0.1141800135 0.0097200004
C  2.4151802063 0.0000500000 0.0026100001
C  3.0991802216 1.1500000954 -0.0026400003
C  2.5580501556 2.4936301708 0.0003200000
C  3.6074502468 3.3343501091 -0.0052600005
C  4.8390903473 2.5643301010 -0.0122600012
C  4.5448698997 1.2544600964 -0.0105800014
H  0.6346300840 -1.1693902016 -0.0143200010
H  0.4885100424 0.3689900339 -0.8698700666
H  0.5022500753 0.3257200420 0.9183200598
H  2.9627101421 -0.9394701123 0.0014700001
H  1.5149301291 2.7625002861 0.0068500005
H  3.5645301342 4.4123401642 -0.0043000001
H  5.8262205124 2.9991402626 -0.0177200008
H  5.2413601875 0.4324000180 -0.0144700008
