19

C  1.9354501963 -0.5904500484 -1.3391401768
C  2.4231503010 -0.0901900083 0.0129500013
C  3.1595802307 1.2324800491 -0.0961200073
N  4.4435100555 1.1361200809 -0.8284700513
C  2.3980500698 2.5102403164 -0.5386900306
N  3.1135001183 3.2849004269 0.5047500134
C  3.3999304771 2.0173201561 1.2236001492
H  1.3645499945 -1.5162101984 -1.2148500681
H  2.7700302601 -0.8010000587 -2.0152401924
H  1.2863901854 0.1460200101 -1.8238801956
H  3.0667302608 -0.8500500917 0.4725700617
H  1.5527200699 0.0197900012 0.6710100770
H  4.9910402298 1.9943602085 -0.8164500594
H  4.3352303505 0.8922700286 -1.8122701645
H  1.3150601387 2.4728701115 -0.3668300211
H  2.5641000271 2.8584802151 -1.5636001825
H  3.9567103386 3.7396602631 0.1582200080
H  4.3993906975 1.9565001726 1.6671900749
H  2.6691801548 1.8101301193 2.0156002045
