21

C  0.8610200882 0.9765600562 -1.0083200932
C  2.3484401703 0.8316400647 -1.0538901091
C  3.1724402905 1.2909700871 -0.0973100066
C  4.6923503876 1.1925501823 -0.0537300035
C  5.0889902115 0.4267600477 1.2210800648
C  5.3136205673 0.4763900340 -1.2670701742
C  5.2656302452 2.6190803051 0.0175200030
H  0.5153599977 1.5395700932 -1.8807201385
H  0.5213700533 1.4991501570 -0.1084800139
H  0.3903900385 -0.0112200016 -1.0272700787
H  2.7410001755 0.3196300268 -1.9279100895
H  2.7237403393 1.7976201773 0.7587100267
H  4.7066001892 0.9198400974 2.1227800846
H  6.1786403656 0.3604700267 1.3202600479
H  4.6936101913 -0.5958600640 1.2093801498
H  5.0798201561 0.9956300855 -2.2036502361
H  4.9550704956 -0.5559800267 -1.3518100977
H  6.4059500694 0.4351600409 -1.1821701527
H  4.9993600845 3.1990902424 -0.8739800453
H  6.3593001366 2.6031403542 0.0890000015
H  4.8873105049 3.1622002125 0.8917100430
