14

O  0.7902000546 1.1533600092 -0.7073600292
N  2.1363201141 1.0161200762 -1.0631700754
C  2.8648600578 1.1817800999 -0.0081700003
C  4.3617205620 1.1157500744 -0.0898900107
C  4.9289102554 2.5229501724 0.0322200023
C  6.3982701302 2.5110101700 -0.0184000023
C  7.5980606079 2.5077700615 -0.0641200021
H  0.3337700367 1.0118401051 -1.5582400560
H  2.4221901894 1.4060301781 0.9789000750
H  4.6604905128 0.6544300914 -1.0380101204
H  4.7181906700 0.4773900509 0.7264600992
H  4.5981206894 2.9812502861 0.9730101228
H  4.5380101204 3.1552603245 -0.7734600902
H  8.6633806229 2.5073003769 -0.1085400134
