17

C  3.1948502064 -1.1493700743 -0.5087100267
C  2.4848103523 0.0330200046 0.1350300163
C  3.2881803513 1.3252201080 0.0154600013
C  3.4527902603 1.8365601301 -1.4085301161
C  3.2874002457 3.2994401455 -1.1626101732
N  2.8274202347 3.6206204891 0.0011600001
N  2.5862901211 2.4495201111 0.6374599934
H  2.6084601879 -2.0628502369 -0.3681000471
H  4.1801304817 -1.3065700531 -0.0586900041
H  3.3273901939 -0.9978501201 -1.5842300653
H  2.3136200905 -0.1950200051 1.1945800781
H  1.4961000681 0.1502100080 -0.3265100121
H  4.2737102509 1.2108701468 0.4845100343
H  2.6748301983 1.5059101582 -2.1029300690
H  4.4430403709 1.6314201355 -1.8222501278
H  3.5327100754 4.0324902534 -1.9436402321
H  2.7334802151 2.5107102394 1.6459200382
