17

C  1.0000001192 0.0000000000 0.0000000000
C  2.4440002441 0.0000000000 0.0000000000
C  3.6341602802 0.0000000000 0.0000000000
C  5.0781602859 0.0000000000 0.0000000000
C  5.6765704155 1.4140601158 -0.0236300007
C  5.4180102348 2.1952903271 1.2600501776
O  7.0910606384 1.3248001337 -0.2198200226
H  0.6061200500 1.0209000111 0.0136100017
H  0.6059499979 -0.5221000314 0.8773200512
H  0.6059000492 -0.4986000359 -0.8908600807
H  5.4488601685 -0.5536900163 -0.8719100356
H  5.4628100395 -0.5462800264 0.8702500463
H  5.2732205391 1.9765501022 -0.8734000921
H  5.8260207176 1.6678401232 2.1299002171
H  4.3496799469 2.3659901619 1.4247401953
H  5.9203305244 3.1679801941 1.2199500799
H  7.4774007797 0.9015100598 0.5660200119
