14

C  1.1605600119 -0.2814100087 -0.1797300130
O  2.4414002895 0.0278200004 0.3500600159
C  2.8940103054 1.3385500908 0.0000000000
C  2.3592603207 2.3525600433 1.0074300766
C  4.3380103111 1.3385500908 0.0000000000
C  5.5281705856 1.3385500908 0.0000000000
H  0.9006000757 -1.2985200882 0.1260800064
H  1.1777601242 -0.2437200099 -1.2732300758
H  0.3995100260 0.4000600278 0.2089900225
H  2.5391001701 1.6001001596 -1.0048301220
H  2.6452102661 2.0801901817 2.0304303169
H  1.2654100657 2.3898301125 0.9868900776
H  2.7380301952 3.3597602844 0.8018900752
H  6.5935006142 1.3284300566 0.0043700002
