20

C  0.9702900648 0.0574400052 0.0105600012
C  2.4825901985 -0.0672800019 0.0286100022
N  3.1333000660 0.9451700449 0.8983800411
C  4.1580300331 -0.0532600060 1.2738600969
C  3.1693403721 -1.1834100485 0.8811100721
C  2.3876001835 -1.7485800982 2.0677201748
C  3.7903401852 -2.3008701801 0.0473000035
H  0.5243800282 -0.7975200415 -0.5097400546
H  0.6629400849 0.9650200605 -0.5214800239
H  0.5392400622 0.0993400067 1.0166801214
H  2.8645203114 -0.0191000011 -1.0016300678
H  2.5569400787 1.2386900187 1.6872500181
H  5.0621905327 0.0102300011 0.6546800733
H  4.4644203186 -0.0186500009 2.3242201805
H  1.9663701057 -0.9580001235 2.6983201504
H  3.0362904072 -2.3615500927 2.7034702301
H  1.5605001450 -2.3793401718 1.7244000435
H  4.3790402412 -1.9052301645 -0.7875700593
H  3.0137202740 -2.9491202831 -0.3720400333
H  4.4569902420 -2.9195401669 0.6571900845
