17

C  0.9929600358 -0.0307800025 0.0126000009
C  2.5200002193 0.0000000000 0.0000000000
C  3.0599703789 -0.7638000846 -1.2095000744
C  3.0020201206 1.3611700535 0.0000000000
C  3.3993003368 2.4830701351 0.0000000000
C  3.8813202381 3.8442401886 0.0000000000
O  2.8319203854 4.7139501572 -0.3974800110
H  0.5969800949 0.4889200628 0.8929300904
H  0.6237100363 -1.0618201494 0.0386500023
H  0.5729900599 0.4566700459 -0.8754000664
H  2.8759002686 -0.5065000653 0.9057000875
H  2.7303903103 -0.3083100319 -2.1507101059
H  2.7152500153 -1.8030401468 -1.1976201534
H  4.1534104347 -0.7721300125 -1.2104600668
H  4.7094101906 3.9596402645 -0.7067000866
H  4.2277703285 4.1485600471 0.9918701053
H  3.2406501770 5.5680804253 -0.6112800837
