14

C  0.9903200865 -0.0302900020 0.0499100015
C  2.4798502922 0.0545700043 -0.2249200195
O  2.9091901779 -1.1326199770 -0.8946300149
N  3.4029302597 -0.7140300274 -2.1461100578
C  3.2791202068 0.5696700811 -2.1476402283
C  3.6436800957 1.4659401178 -3.2712302208
O  2.7497601509 1.1618200541 -1.0633400679
H  0.6357500553 0.8719000816 0.5577500463
H  0.7534500957 -0.9076400399 0.6592600942
H  0.4287000299 -0.1199100092 -0.8869900703
H  3.0440502167 0.1588200182 0.7080000639
H  3.6609103680 2.5080401897 -2.9410903454
H  2.9085602760 1.3561401367 -4.0728001595
H  4.6345806122 1.1990100145 -3.6476602554
