15

C  0.9517100453 0.2401100248 -0.2894999981
O  2.3794503212 0.2149400115 -0.3848400414
C  3.0680902004 1.3383600712 -0.1653900146
N  4.3642301559 1.3492600918 -0.1465800107
N  4.7188801765 2.6284801960 0.1402400136
C  3.6207504272 3.5548801422 -0.1081300080
C  2.4106101990 2.6545403004 0.0722200051
H  0.5931400061 -0.7912200093 -0.3426700234
H  0.5293800831 0.7974800467 -1.1300201416
H  0.6317099929 0.6664800048 0.6654800177
H  5.5902500153 2.9007701874 -0.3173300028
H  3.6687600613 3.9330701828 -1.1356800795
H  3.6224603653 4.4009604454 0.5838100314
H  1.6322700977 2.8729801178 -0.6615700126
H  2.0184702873 2.6904401779 1.0925600529
