15

C  1.6822301149 -0.0763400048 -0.0086400006
C  0.7782800198 -1.2050000429 0.4668800235
N  -0.3840700090 -1.3363200426 -0.4103800058
N  -1.4683800936 -0.5546300411 -0.1664300114
C  -1.3235200644 0.7095900774 0.0851100087
O  -0.2082500160 1.4827002287 0.0879900083
C  0.9204900861 1.0553901196 -0.6803900599
H  2.4274702072 -0.4619900584 -0.7152000666
H  2.2321300507 0.3119200170 0.8571600914
H  1.3499901295 -2.1397502422 0.4630600214
H  0.4589200318 -1.0428000689 1.5037300587
H  -0.6872800589 -2.3142101765 -0.4184900522
H  -2.1907403469 1.3207401037 0.3789900243
H  1.5825500488 1.9204801321 -0.7936500311
H  0.5950400233 0.7841900587 -1.6921100616
