17

C  1.7531400919 0.3411800265 -2.6392803192
C  2.9569101334 0.3670000136 -1.7546601295
C  3.2592601776 1.3819701672 -0.9259001017
C  4.4432306290 1.4764100313 0.0020700002
O  5.2727603912 0.3297400177 -0.1224500090
C  5.3274803162 2.6760103703 -0.2113800049
C  5.2403602600 3.6242403984 -1.1562501192
H  1.1140100956 -0.5066900253 -2.3748202324
H  2.0618700981 0.2272100151 -3.6831903458
H  1.1588901281 1.2567601204 -2.5582201481
H  3.5972802639 -0.5111100674 -1.7983801365
H  2.5794401169 2.2311999798 -0.8773500919
H  4.0682702065 1.5006201267 1.0313700438
H  5.6627507210 0.3811200261 -1.0112900734
H  6.1393504143 2.7584502697 0.5110400319
H  4.4683704376 3.6191804409 -1.9188401699
H  5.9585905075 4.4384002686 -1.1867500544
