16

N  0.4143000543 -0.1403600127 -0.0227400009
C  1.8696001768 -0.0139800012 0.0343800038
C  2.4063801765 1.3917301893 -0.1257000118
C  1.6444801092 2.5002501011 -0.1818700135
O  3.7848701477 1.4126900434 -0.3017400205
C  4.5510101318 2.3869702816 0.2880600095
C  5.8695502281 2.4601700306 0.0899800062
H  0.1687600166 -1.1199500561 0.1067500114
H  0.1105700061 0.0998800024 -0.9652500749
H  2.2995901108 -0.6489900351 -0.7493500710
H  2.2157702446 -0.4082600176 0.9971200824
H  0.5677700639 2.4509601593 -0.0574000068
H  2.0706102848 3.4805903435 -0.3577600420
H  4.0196404457 3.0692801476 0.9366800785
H  6.3754005432 1.7490701675 -0.5521600246
H  6.4621706009 3.2301201820 0.5703700185
