14

C  0.9925100803 0.0548200049 0.0019500001
C  2.4750401974 -0.0259900019 0.0044600004
C  3.2513203621 -1.1227900982 0.0070600007
C  4.6978702545 -0.7230500579 0.0086800000
C  4.6040005684 0.7737400532 0.0061700004
C  3.3175604343 1.1497501135 0.0041000000
H  0.5390500426 -0.9419201016 -0.0009400001
H  0.6367800236 0.5875600576 -0.8858100772
H  0.6336000562 0.5840300322 0.8905200958
H  2.9015102386 -2.1452500820 0.0078000003
H  5.2104406357 -1.0896000862 -0.8853400946
H  5.2078404427 -1.0868899822 0.9050400853
H  5.4534401894 1.4399900436 0.0065600006
H  2.9500901699 2.1646201611 0.0018400002
