13

C  1.6815301180 1.5496500731 -1.4525001049
C  2.5642302036 1.2874801159 -0.6803100705
C  3.6148402691 0.9728500843 0.2470700145
N  4.7834300995 1.1045200825 -0.2740100026
N  5.7562904358 0.8047500253 0.6119000316
C  6.8637704849 0.2312800139 -0.1560600102
C  6.9004201889 1.6594301462 0.2869500220
H  0.9066501260 1.7841601372 -2.1443903446
H  3.3739602566 0.6597900391 1.2762100697
H  6.7040104866 0.0145900007 -1.2055801153
H  7.4757809639 -0.4852400422 0.3755200207
H  7.5375103951 1.9200900793 1.1216400862
H  6.7662405968 2.4389402866 -0.4535700381
