18

O  2.0164101124 -0.2650800049 -1.3984601498
C  2.3042299747 0.0838600099 -0.0498800017
C  3.0833501816 1.3893601894 -0.0212400015
C  2.2932901382 2.5812101364 -0.5503800511
C  2.9626502991 3.7457904816 0.1487300098
N  3.1768803596 3.2391302586 1.5027301311
C  3.5039403439 1.8146301508 1.3849800825
H  1.4923001528 -1.0841300488 -1.3751801252
H  2.8938302994 -0.7249000072 0.3942700326
H  1.3598300219 0.1694100201 0.4978000224
H  3.9808301926 1.2836600542 -0.6466600299
H  1.2365100384 2.5172901154 -0.2623900175
H  2.3478500843 2.6650600433 -1.6401901245
H  3.9215402603 3.9867801666 -0.3249900341
H  2.3365602493 4.6422705650 0.1493700147
H  3.9260804653 3.7501103878 1.9667301178
H  4.5794405937 1.6542102098 1.5212200880
H  2.9800002575 1.2570900917 2.1679201126
