15

C  0.8382300735 -0.3156300187 -0.0032000002
C  2.3532402515 -0.3202000260 0.1091400087
O  2.9043002129 -0.9851700664 -1.0163301229
C  2.8611500263 1.1053701639 0.2197000235
N  3.2407603264 1.7543301582 -0.8355700374
N  3.6243004799 3.0472202301 -0.4991900325
C  4.0101804733 3.6967303753 -1.5455302000
H  0.3758800328 0.1879800111 0.8514000773
H  0.4545300305 -1.3393599987 -0.0605600029
H  0.5148100257 0.1965100169 -0.9165700674
H  2.6616001129 -0.8599600792 1.0090399981
H  2.9791200161 -0.3093200326 -1.7176401615
H  2.8396201134 1.5676501989 1.2224100828
H  4.3484601974 4.7397203445 -1.4492300749
H  4.0209603310 3.2576804161 -2.5573501587
