18

C  2.3701701164 -0.4567300379 -1.5213201046
C  2.4292302132 0.0641800016 -0.0934900045
C  3.3303201199 1.2894601822 0.0059100003
N  2.7235300541 2.5201003551 -0.5628700256
C  3.2351801395 3.2954304218 0.5852700472
C  3.3745703697 1.9878301620 1.3921101093
O  4.5757803917 1.8183401823 2.1752402782
H  1.7501801252 -1.3573101759 -1.5716401339
H  3.3703901768 -0.7093100548 -1.8887101412
H  1.9421101809 0.2886100411 -2.1994102001
H  2.8238902092 -0.7279600501 0.5534200668
H  1.4147101641 0.2861100435 0.2584900260
H  4.3337101936 1.0909401178 -0.3964800239
H  1.7035901546 2.4951102734 -0.6064900756
H  4.1819105148 3.8069202900 0.3775500357
H  2.5279402733 4.0240502357 0.9923200607
H  2.4921600819 1.7855101824 2.0129201412
H  5.3064007759 2.0257802010 1.5667101145
