14

C  3.5185503960 -1.1199600697 -0.2865100205
O  2.5644702911 -0.0889800042 -0.0582200028
C  3.0396902561 1.1903301477 0.0413200036
C  4.3020801544 1.6348901987 -0.0476800054
C  4.6394004822 3.0341401100 0.0806200057
C  5.8922200203 3.4942202568 -0.0099200010
H  2.9799602032 -2.0703501701 -0.3450300395
H  4.2299304008 -1.1850401163 0.5431600809
H  4.0396103859 -0.9680900574 -1.2374100685
H  2.1979403496 1.8537400961 0.2147600204
H  5.1246204376 0.9482900500 -0.2221800089
H  3.8289802074 3.7385501862 0.2588300109
H  6.7395005226 2.8391602039 -0.1870300174
H  6.0973505974 4.5555005074 0.0930100083
