13

C  1.0472500324 -0.0132200001 -0.1139000058
C  2.5486402512 -0.0072600003 0.0873900056
N  3.1421301365 -1.2549201250 -0.4824300110
C  3.9924204350 -0.8365300298 -1.3569500446
N  4.1043705940 0.4873600304 -1.5202600956
C  3.2227301598 1.1019500494 -0.6960100532
O  3.0204701424 2.3021402359 -0.6250300407
H  0.5969300270 0.8990900517 0.2907700241
H  0.5915400386 -0.8742800951 0.3857600391
H  0.7860400677 -0.0679100081 -1.1768301725
H  2.8194000721 0.0741700083 1.1449600458
H  4.6274600029 -1.4813500643 -1.9799301624
H  4.6918101311 0.9801900387 -2.1725401878
