15

C  1.5939800739 -0.5645800233 -1.0124601126
C  2.0518500805 0.2305000126 -0.0352000035
C  3.1710903645 1.2239700556 -0.1126000062
C  3.7527303696 1.6243400574 -1.4913500547
N  3.9960703850 3.1028501987 -1.4287800789
C  3.3211202621 3.4610402584 -0.3808500171
N  2.6766002178 2.5079300404 0.3432100415
H  0.7703200579 -1.2478901148 -0.8245400786
H  2.0088200569 -0.5634200573 -2.0147402287
H  1.5742701292 0.1473700106 0.9396401048
H  3.9869701862 0.9021000862 0.5465800166
H  3.0676102638 1.4320501089 -2.3235101700
H  4.6936402321 1.0990799665 -1.6852000952
H  3.2561202049 4.4930801392 -0.0002900000
H  2.6055402756 2.6504101753 1.3424100876
