14

C  0.8733400702 -1.1157600880 0.9385900497
C  1.1206901073 -0.3868100345 -0.3596900105
C  0.8577900529 1.0764200687 -0.5007700324
O  -0.2472400218 1.4504901171 0.3321500421
N  -1.4673401117 0.8130900264 -0.0154800015
C  -1.3920301199 -0.4699800313 -0.2002300024
C  -0.1156400070 -1.2202000618 -0.1946800053
H  1.4866101742 -1.9817101955 1.1583700180
H  0.5961000919 -0.5416600108 1.8171901703
H  1.9058501720 -0.7397500277 -1.0133900642
H  1.7317701578 1.6490601301 -0.1764100045
H  0.6363300085 1.3440802097 -1.5398201942
H  -2.3123800755 -1.0345500708 -0.4195900559
H  -0.1498300135 -2.1642601490 -0.7276000381
