18

C  1.0579100847 -0.0467600040 -0.0159400012
C  2.5489401817 -0.0415100008 -0.0217900015
C  3.3610601425 -0.7138600349 -1.1001100540
N  2.7313702106 -1.4031400681 -2.2205100060
C  3.3003602028 0.7920600772 -1.0336101055
C  4.5058603287 1.5700100660 -0.6291200519
O  5.2946906090 1.8348501921 -1.7794400454
H  0.6861100793 0.7285400629 0.6612400413
H  0.6865299940 -1.0129100084 0.3387100101
H  0.6315200925 0.1436700076 -1.0054000616
H  2.9400403500 -0.0987200066 0.9892400503
H  4.2838606834 -1.1876300573 -0.7671600580
H  1.9445000887 -0.8763600588 -2.5977003574
H  2.3503303528 -2.3012702465 -1.9237700701
H  2.7239401340 1.3244500160 -1.7821601629
H  5.1232004166 1.0351201296 0.0996800065
H  4.2100501060 2.5271401405 -0.1899500191
H  5.4016904831 0.9887000322 -2.2484502792
