12

C  0.9902100563 -0.0253300015 0.0216100011
C  2.5200002193 0.0000000000 0.0000000000
C  3.0177600384 -0.7708100677 -1.1583200693
C  3.4263103008 -1.3942101002 -2.1013901234
C  3.0020201206 1.3611700535 0.0000000000
C  3.3993003368 2.4830701351 0.0000000000
H  0.5995400548 0.5032000542 0.8992500305
H  0.6148500443 -1.0549601316 0.0542900041
H  0.5662200451 0.4538200200 -0.8699500561
H  2.8725602627 -0.4982600212 0.9121100307
H  3.7920303345 -1.9391801357 -2.9404802322
H  3.7576003075 3.4866802692 -0.0046700002
