15

C  0.8815200329 0.1171400100 -0.0060700001
C  2.3851003647 0.0227300022 -0.0072300006
C  2.9283900261 -1.3807401657 0.0055500004
O  2.5866701603 -2.0187301636 -1.2171601057
C  3.1390202045 1.1379899979 0.0000000000
C  4.5450205803 1.1379899979 0.0000000000
C  5.7351803780 1.1379899979 0.0000000000
H  0.5316100121 1.1545600891 0.0247400012
H  0.4695400298 -0.3959200382 0.8692900538
H  0.4664400220 -0.3443000019 -0.9079700708
H  2.4866802692 -1.9522601366 0.8286800981
H  4.0143904686 -1.4321401119 0.1234600097
H  2.9657502174 -1.4688900709 -1.9244700670
H  2.6571702957 2.1127800941 -0.0003200000
H  6.8004703522 1.1386799812 0.0012500001
