14

C  1.9540001154 1.3453400135 2.6046402454
O  1.8219200373 2.1912701130 1.4572101831
C  2.8704502583 2.2074403763 0.5907100439
C  2.5838901997 3.1184000969 -0.5511400700
C  1.4495301247 3.8141803741 -0.7088500857
N  3.9344103336 1.5003501177 0.8005100489
O  4.8866004944 1.6688201427 -0.2134900242
H  1.0755300522 1.4984700680 3.2368302345
H  2.8438301086 1.6104900837 3.1837303638
H  1.9824200869 0.2955700159 2.2986600399
H  3.3705403805 3.2000203133 -1.2926200628
H  0.6342000365 3.7634303570 0.0058300006
H  1.3152500391 4.4571499825 -1.5720400810
H  5.6130003929 1.0907500982 0.0854800045
