12

C  0.3372300267 1.0227800608 -0.1304800063
C  0.9960700870 -0.3306200206 0.2112000138
C  -0.3298500478 -0.9962900877 -0.2113400102
C  -1.0206900835 0.3404900134 0.1305500120
H  0.5876700878 1.8548301458 0.5319100618
H  0.4831600487 1.3345700502 -1.1707201004
H  1.2319301367 -0.4510400295 1.2748700380
H  1.8736101389 -0.5967500806 -0.3828500211
H  -0.3741400242 -1.2573001385 -1.2747900486
H  -0.6405800581 -1.8587200642 0.3829100132
H  -1.8386501074 0.6370700598 -0.5322099924
H  -1.3586701155 0.4100200236 1.1708400249
