15

C  1.1010600328 0.0260300022 0.1649400145
N  2.4661102295 0.0904000103 -0.3350100219
C  3.1339702606 1.1713501215 -0.1304300129
C  2.6577801704 2.4135801792 0.5384200215
C  3.5239603519 3.3939800262 -0.2210600078
O  4.7457504272 2.7160701752 -0.5591500401
N  4.4278006554 1.3504700661 -0.5342700481
H  0.7479800582 -1.0082601309 0.1022500098
H  0.4308700264 0.6410700679 -0.4441000223
H  1.0304501057 0.3275800347 1.2151300907
H  2.9246001244 2.3670601845 1.5988800526
H  1.5941501856 2.6222801208 0.4194400311
H  3.0458302498 3.7128503323 -1.1543900967
H  3.7542102337 4.2822604179 0.3739600182
H  4.7201700211 0.8043500185 -1.3397901058
