18

C  0.8185600638 0.3131799996 0.2334400117
C  2.2941401005 0.0734100044 0.1317200065
C  2.8165302277 -1.1635800600 0.1003300101
C  3.2360603809 1.2297401428 0.0374300033
C  2.6843903065 2.6752600670 0.1001300067
N  3.8626303673 3.0483202934 0.9232500792
C  3.9570701122 1.6266701221 1.3471701145
H  0.4701000452 0.9266200662 -0.6037000418
H  0.5770300627 0.8240001202 1.1712400913
H  0.2501700222 -0.6228400469 0.2132100165
H  2.1860902309 -2.0464200974 0.1570900232
H  3.8861801624 -1.3330700397 0.0171200018
H  3.9327502251 1.1070500612 -0.8071800470
H  1.7397100925 2.8229401112 0.6341400146
H  2.6208002567 3.1944704056 -0.8609500527
H  4.6614103317 3.3487801552 0.3631200194
H  4.9796605110 1.2527401447 1.4569001198
H  3.4074804783 1.4175101519 2.2728903294
