18

C  2.9697203636 -0.5169700384 1.3947201967
N  2.5797102451 0.2008900195 0.1856000125
C  3.0616202354 1.6012401581 0.1151500121
C  2.5419602394 2.1913301945 -1.2045000792
C  2.5657000542 2.4598302841 1.2848701477
C  4.5929207802 1.6091800928 0.0263500009
O  5.3253407478 2.3629000187 0.6644099951
H  2.6281101704 -1.5542701483 1.3154901266
H  2.5099701881 -0.0923500061 2.2916200161
H  4.0556502342 -0.5463500619 1.5226800442
H  1.5603001118 0.1974100173 0.1248000041
H  2.8830802441 1.6083401442 -2.0686602592
H  2.9074699879 3.2154703140 -1.3480001688
H  1.4464300871 2.2212500572 -1.2290101051
H  3.0161602497 2.1561801434 2.2364702225
H  1.4765601158 2.4036800861 1.3886101246
H  2.8294003010 3.5141201019 1.1368000507
H  5.0250701904 0.8991600871 -0.7010800838
