15

N  0.8735901117 -0.1629300117 0.0184500013
C  2.1666903496 -0.0789500102 -0.0014900002
C  2.8530402184 1.2772600651 -0.0559800044
C  4.3898401260 1.2412301302 -0.0337100029
C  5.0290703773 -0.1168000102 -0.0168800019
C  4.2919001579 -1.2305401564 0.0080400007
N  2.9309401512 -1.2062700987 0.0186300017
H  0.4601900280 0.7752500772 -0.0050200000
H  2.4876701832 1.8741401434 0.7889500856
H  2.5117301941 1.7851101160 -0.9665901065
H  4.7424902916 1.7972401381 0.8439000845
H  4.7662801743 1.7893401384 -0.9063400626
H  6.1129803658 -0.1769000143 -0.0211400017
H  4.7357501984 -2.2213499546 0.0243100002
H  2.4285900593 -2.0855901241 0.0484400019
