18

C  1.5674800873 1.4427601099 -0.6193300486
C  0.2060000300 1.1365300417 -0.0662600026
C  1.1850800514 0.0209700018 -0.3159000278
N  1.7631900311 -0.6678400040 0.8397001028
C  3.1279802322 -1.1101001501 0.5386700034
C  4.2827105522 -0.3577700257 1.1395801306
C  3.9445104599 -1.7318401337 1.6382400990
H  1.6419200897 1.7326102257 -1.6601800919
H  2.2805299759 1.9334300756 0.0325300023
H  -0.6447000504 1.2219300270 -0.7309200168
H  0.0035400002 1.4267702103 0.9577300549
H  0.9736300707 -0.6178100109 -1.1706900597
H  1.1804200411 -1.4616202116 1.1065500975
H  3.2763302326 -1.5377300978 -0.4512800276
H  4.0647401810 0.4832100272 1.7877200842
H  5.1746006012 -0.2362900227 0.5375000238
H  4.6106901169 -2.5448203087 1.3752201796
H  3.5064101219 -1.8166900873 2.6258702278
