15

C  0.9986900687 0.0343500040 0.1714400053
C  2.4523701668 0.0732700080 -0.1674000025
C  3.1627502441 1.2037900686 -0.2699600458
C  4.6241602898 1.3362801075 -0.6145500541
C  4.7987604141 2.8223903179 -0.6407800913
C  3.6271700859 3.3816201687 -0.3413000107
O  2.6135900021 2.4713501930 -0.1015200093
H  0.7094100714 -0.9841101170 0.4498000443
H  0.3941900134 0.3323700428 -0.6905300617
H  0.7672100663 0.6859500408 1.0201300383
H  2.9433102608 -0.8798500299 -0.3380400240
H  4.8479003906 0.8999400139 -1.5922602415
H  5.2585406303 0.8871200681 0.1557300091
H  5.7163004875 3.3415002823 -0.8647200465
H  3.3528504372 4.4180803299 -0.2626500130
