14

C  0.9407901168 0.1420600116 0.1036600098
C  2.4271802902 -0.0192100015 -0.1695900112
O  2.5909602642 -0.5728500485 -1.4724701643
C  3.1406402588 1.2944300175 -0.1158900037
C  3.9179904461 1.7241600752 1.0999801159
O  4.5709505081 1.1776500940 -0.0563200042
H  0.7642200589 0.5662900209 1.0965499878
H  0.4312400222 -0.8249000311 0.0368700027
H  0.4733300507 0.7982800603 -0.6386600733
H  2.8519802094 -0.7304600477 0.5485000014
H  3.5511803627 -0.5767300129 -1.6418001652
H  2.7282700539 2.0431702137 -0.7784400582
H  3.8832802773 1.1117200851 1.9919700623
H  4.0362305641 2.7847900391 1.2838301659
