15

O  2.1977701187 -1.3104200363 -0.8370100260
C  3.3871102333 -0.7371200919 -0.3172600269
C  3.0412702560 0.6136700511 0.2109000087
C  3.7361304760 1.7315702438 -0.0571200065
C  3.3916602135 3.0850901604 0.4868200421
C  4.4861602783 3.6438903809 1.3774501085
O  5.5919604301 3.1414902210 1.5504300594
H  2.4327299595 -2.2013502121 -1.1454501152
H  4.1343603134 -0.6924800873 -1.1160200834
H  3.7588603497 -1.3738600016 0.4912000597
H  2.1684300900 0.6563900709 0.8574900627
H  4.6162700653 1.6799801588 -0.6961700320
H  2.4709701538 3.0548601151 1.0795800686
H  3.2397704124 3.7884004116 -0.3383000195
H  4.2320604324 4.6000404358 1.8679901361
