16

O  1.3664001226 -0.2841100097 -0.5503300428
C  2.2801001072 0.0607100055 0.1957900226
C  2.9463403225 1.4149301052 0.1326000094
N  4.3310303688 1.2305300236 -0.3141100109
C  5.0731306076 2.4961900711 -0.3355500102
C  5.9741306305 2.8376700878 0.8158600926
C  6.5658607483 2.4455003738 -0.5071600676
H  2.6713802814 -0.6272400618 0.9654400945
H  2.9047203064 1.8556101322 1.1336899996
H  2.3901500702 2.0527701378 -0.5613800287
H  4.3171100616 0.8239900470 -1.2529500723
H  4.5718402863 3.3239703178 -0.8349400163
H  6.0622205734 2.1324501038 1.6350802183
H  6.0454607010 3.8770203590 1.1154000759
H  7.0312108994 3.2189104557 -1.1051700115
H  7.0478506088 1.4783600569 -0.5773500204
