10

C  0.8702400923 0.1680200249 0.0020100002
C  2.0682301521 0.0816100091 -0.0007100001
C  3.4914302826 -0.0166400000 -0.0039500003
N  4.2483506203 1.0598500967 -0.0094000008
C  5.5796203613 0.6902300715 -0.0115100015
C  5.8209304810 -0.6662300229 -0.0076300004
S  4.3314504623 -1.5155800581 -0.0011100001
H  -0.1913100183 0.2522200048 0.0043900004
H  6.3416600227 1.4602401257 -0.0159400012
H  6.7697105408 -1.1826100349 -0.0082900003
