22

C  2.9185202122 -0.8835800886 -1.0106401443
C  2.4508900642 -0.0339100026 0.1628400236
C  2.9688904285 1.4196701050 0.1299200058
C  2.2744302750 2.2182002068 1.2396100760
C  4.5063204765 1.4797601700 0.2555300295
C  5.0726704597 2.9013102055 0.2104000151
N  6.5321207047 2.8617002964 0.2259800136
H  2.4185302258 -1.8576301336 -0.9893900752
H  3.9957101345 -1.0688300133 -0.9723500609
H  2.6804800034 -0.4024700224 -1.9646102190
H  2.7509303093 -0.5188600421 1.0997600555
H  1.3536601067 -0.0239900015 0.1517000198
H  2.6804902554 1.8644601107 -0.8315500617
H  2.5982403755 1.8830702305 2.2307603359
H  1.1863701344 2.1028401852 1.1822000742
H  2.4849503040 3.2884402275 1.1528401375
H  4.9565601349 0.9074200988 -0.5644800663
H  4.8163104057 0.9910000563 1.1885100603
H  4.7324304581 3.4851303101 1.0711001158
H  4.7390103340 3.4116704464 -0.6992400885
H  6.8528304100 2.4109301567 1.0822300911
H  6.8951506615 3.8138201237 0.2514400184
