14

C  1.0000001192 0.0000000000 0.0000000000
C  2.4440002441 0.0000000000 0.0000000000
C  3.6341602802 0.0000000000 0.0000000000
C  5.0737404823 -0.0323600024 -0.0007900001
C  5.7940907478 -1.3405900002 -0.0057500000
N  5.5848503113 1.1569001675 0.0013100002
O  6.9850602150 1.0962700844 -0.0010400000
H  0.6059499979 1.0208600760 0.0116800005
H  0.6059600711 -0.5205600262 0.8782500625
H  0.6059600711 -0.5003200173 -0.8899300694
H  5.0888304710 -2.1763100624 0.0020900001
H  6.4335703850 -1.4096901417 0.8786700964
H  6.4163503647 -1.4116001129 -0.9022300839
H  7.2332506180 2.0404901505 0.0008700001
