18

C  0.9615700841 0.0277100019 0.0712800026
C  2.4827101231 0.0060200002 -0.0750700012
C  3.0183002949 -1.3406401873 -0.6072800756
N  2.6933600903 -1.5642200708 -2.0257501602
C  3.1856300831 -0.4175700545 -2.8061101437
C  2.6435601711 0.9171100259 -2.2766900063
O  2.9438803196 1.1017500162 -0.8862000704
H  0.6256800294 1.0167800188 0.4017100334
H  0.6316900253 -0.7158001065 0.8042801023
H  0.4498100281 -0.1826000065 -0.8729900122
H  2.9102902412 0.1695700139 0.9210000634
H  2.6151401997 -2.1669802666 -0.0114900004
H  4.1096105576 -1.3603301048 -0.4930000305
H  3.1602401733 -2.4124002457 -2.3464200497
H  4.2817602158 -0.4063600302 -2.7695403099
H  2.8920202255 -0.5422900319 -3.8533301353
H  3.1111502647 1.7436400652 -2.8214902878
H  1.5629200935 1.0004500151 -2.4343402386
