10

N  1.0362601280 0.0782300010 -0.2123600245
C  2.1885802746 0.0490300059 -0.0866400078
C  3.6203703880 0.0239200015 0.0224900022
N  4.4385805130 -0.7057900429 -0.9561601281
C  4.4237804413 0.7608900666 -1.0238000154
C  5.5567803383 1.5238701105 -0.5799900293
N  6.4518804550 2.1611301899 -0.2085100114
H  4.0056900978 -0.0058900001 1.0366500616
H  3.8535604477 -1.1080901623 -1.6924600601
H  3.9023504257 1.1745400429 -1.8812501431
