19

C  1.3097200394 -0.3017200232 2.1137802601
C  2.0193502903 -0.8675701022 0.8966600299
C  2.6979002953 0.2251700163 0.0763100088
O  3.3251802921 -0.3932300210 -1.0474300385
C  4.0227003098 0.4043100178 -1.9252201319
C  4.5957503319 -0.3683600426 -3.0784301758
C  4.2055702209 1.7310401201 -1.8161501884
H  0.8413301110 -1.1066900492 2.6882801056
H  0.5275000334 0.4042000473 1.8177502155
H  2.0129902363 0.2198400199 2.7704601288
H  1.3042701483 -1.4112800360 0.2672500312
H  2.7663402557 -1.6066200733 1.2115201950
H  3.4485502243 0.7318600416 0.6942300200
H  1.9487301111 0.9480600953 -0.2676199973
H  5.2662601471 -1.1519101858 -2.7111003399
H  5.1662402153 0.2677000165 -3.7633602619
H  3.7910604477 -0.8413800597 -3.6503503323
H  3.8082902431 2.3197100163 -0.9982800484
H  4.7749605179 2.2767200470 -2.5623302460
