13

C  1.0583000183 0.0304500014 0.1390900016
C  2.3590900898 0.0144500006 -0.1577100158
O  3.0202600956 1.1683499813 -0.5100300312
C  4.3341603279 0.7072100043 -0.8312301040
O  4.5149703026 -0.6843600273 -0.5620900393
C  3.2596502304 -1.0970700979 -0.1782800108
C  3.0168902874 -2.3758702278 0.1189600080
H  0.5144300461 -0.8648300767 0.4142300189
H  0.5034000278 0.9622300863 0.1086800098
H  4.5219602585 0.8889400959 -1.8957000971
H  5.0635404587 1.2788500786 -0.2471300215
H  2.0388200283 -2.7254703045 0.4263400435
H  3.8134400845 -3.1101903915 0.0584800057
