19

C  0.8980600238 -0.0308500025 0.0321100019
C  2.4059903622 -0.1523700207 -0.2022300214
C  2.6636500359 -0.9701100588 -1.4697000980
C  3.0361402035 1.2461501360 -0.2926200330
C  4.5517802238 1.2525801659 -0.1760400087
C  5.2199301720 2.5969002247 -0.3139800429
O  5.2121500969 0.2444600314 0.0687800050
H  0.6906700134 0.5182000399 0.9564600587
H  0.4373300374 -1.0201101303 0.1224400103
H  0.4088700414 0.4973600209 -0.7934800386
H  2.8365302086 -0.6928001046 0.6498300433
H  2.2633302212 -0.4673000574 -2.3567402363
H  2.1875801086 -1.9550001621 -1.3984000683
H  3.7340703011 -1.1347900629 -1.6300500631
H  2.6604502201 1.8724801540 0.5257700682
H  2.7612202168 1.7244101763 -1.2395101786
H  4.8570103645 3.1011202335 -1.2140001059
H  6.3020806313 2.4645102024 -0.4039000273
H  5.0023403168 3.2030100822 0.5695900917
