15

N  1.0162501335 -0.0220700018 0.0551400036
C  2.4700002670 0.0000000000 0.0000000000
C  2.9520201683 1.3611700535 0.0000000000
C  3.3493003845 2.4830701351 0.0000000000
C  3.9502103329 3.7810802460 0.0607200041
C  3.9082202911 4.6677603722 -1.1556000710
N  3.0947201252 4.9630203247 0.0162400007
H  0.6897900701 -0.9749301076 -0.0850000083
H  0.6487000585 0.5284100175 -0.7196000814
H  2.8055200577 -0.5210400224 -0.9030400515
H  2.8681201935 -0.5489000082 0.8593700528
H  4.8272705078 3.8597004414 0.6965300441
H  3.3673102856 4.3331203461 -2.0315601826
H  4.7507705688 5.3198204041 -1.3456300497
H  3.5034401417 5.7106008530 0.5778600574
