20

C  1.6625500917 -0.7610800862 -0.6125800014
O  2.9432601929 -0.2441200167 -0.2762800157
C  2.9382002354 1.1877300739 -0.2407500148
C  4.3526501656 1.6785601377 0.1086000130
N  4.4651503563 3.1409502029 0.2744400203
C  5.7867002487 3.4747903347 0.8139801025
C  4.2567100525 3.8500802517 -0.9893200994
H  1.7178201675 -1.8527601957 -0.5999000669
H  1.3726301193 -0.4377400279 -1.6166701317
H  0.9139600992 -0.4401700497 0.1182100102
H  2.2233402729 1.5281101465 0.5172800422
H  2.6269502640 1.5616701841 -1.2232900858
H  5.0616502762 1.3087700605 -0.6439100504
H  4.6363401413 1.1852101088 1.0477900505
H  5.9379000664 2.9967303276 1.7884701490
H  5.8738803864 4.5543203354 0.9806900620
H  6.5974903107 3.1619000435 0.1456699967
H  3.2344303131 3.7134401798 -1.3558101654
H  4.9539504051 3.5219702721 -1.7686301470
H  4.3837203979 4.9299702644 -0.8494300246
