13

C  1.0439800024 0.0165400002 -0.1940300167
C  2.3620202541 -0.0144400010 0.0223400034
C  3.2107400894 -1.2540900707 0.1057600006
C  4.5497102737 -0.6230800152 0.3852300346
O  5.5980401039 -1.2297401428 0.5537800789
C  4.4732704163 0.8453700542 0.4350800514
C  3.1919901371 1.1476300955 0.2192100137
H  0.4770500362 -0.8997800350 -0.3312300444
H  0.4918900430 0.9505100846 -0.2388900071
H  3.2433602810 -1.7923901081 -0.8447200656
H  2.9175803661 -1.8967901468 0.9395400286
H  5.3110804558 1.4933900833 0.6139900684
H  2.8071303368 2.1583402157 0.1958800256
