19

C  1.1271501780 -0.4914200306 0.1481900066
C  2.6423799992 -0.7459700704 0.0996100083
C  3.0615200996 -1.4290901423 1.4088600874
C  2.9485602379 -1.6271201372 -1.1199700832
O  3.2339100838 0.5625000596 -0.0249100011
C  4.5884804726 0.6544300914 -0.1474900097
C  5.1810903549 1.8113601208 -0.4392600358
H  0.7886200547 0.0207800008 -0.7600300312
H  0.8691500425 0.1649300158 0.9875800610
H  0.5608900785 -1.4230501652 0.2512200177
H  2.8925004005 -0.7660500407 2.2647001743
H  4.1268005371 -1.6812901497 1.4129701853
H  2.5028400421 -2.3569700718 1.5711901188
H  2.7132403851 -1.0989800692 -2.0508902073
H  2.3731000423 -2.5587201118 -1.0934501886
H  4.0089201927 -1.8956102133 -1.1694500446
H  5.1525101662 -0.2523100078 0.0150400009
H  4.5949707031 2.7117803097 -0.5931500793
H  6.2593703270 1.8812900782 -0.5281900167
