10

O  0.9952901006 0.0024200000 0.0035300003
C  2.4200003147 0.0000000000 0.0000000000
C  2.8806502819 -0.7804600596 -1.1570501328
C  3.2563202381 -1.4192900658 -2.1031901836
C  2.9020202160 1.3611700535 0.0000000000
C  3.2993004322 2.4830701351 0.0000000000
H  0.7257300615 0.6394300461 0.6844600439
H  2.7391700745 -0.5063200593 0.9179100990
H  3.5818800926 -1.9823701382 -2.9468102455
H  3.6565301418 3.4871902466 -0.0107000005
