18

C  3.3939800262 -1.4535301924 1.1175301075
C  2.7670803070 -0.0853000060 1.3648700714
N  3.2649202347 0.9613500237 0.4616600275
C  2.4949903488 2.1951003075 0.6263599992
C  4.7116103172 1.2111401558 0.5545800328
C  5.1775903702 1.6398301125 1.8841700554
C  5.5647406578 1.9888101816 2.9675002098
H  2.8765404224 -2.2129201889 1.7132902145
H  4.4495401382 -1.4764600992 1.4046100378
H  3.3119103909 -1.7418601513 0.0643400028
H  2.8973500729 0.1923000216 2.4179801941
H  1.6870101690 -0.1993200183 1.2052201033
H  1.4361701012 2.0161101818 0.4072600305
H  2.8305404186 2.9609603882 -0.0819400102
H  2.5659201145 2.6050500870 1.6399401426
H  4.9892606735 1.9729402065 -0.1853900105
H  5.2619199753 0.3153200448 0.2447900325
H  5.9061803818 2.2971601486 3.9280402660
