21

C  1.0869200230 -0.1376500130 -0.0321300030
C  2.6054701805 -0.0593700036 -0.0145600010
N  3.0246901512 1.3409700394 0.0276000015
C  4.4931602478 1.4489401579 -0.0008000000
C  4.9731602669 2.9229199886 0.0391000025
C  4.6463503838 3.6576902866 -1.2628800869
N  4.3723201752 3.6478104591 1.1738901138
H  0.7640600204 -1.1831700802 -0.0578500032
H  0.6765000224 0.3633300364 -0.9154101014
H  0.6533800364 0.3276900053 0.8592400551
H  2.9953701496 -0.5477400422 -0.9149100184
H  2.9859001637 -0.6008300185 0.8594500422
H  2.7097601891 1.7550901175 0.9066400528
H  4.8888502121 0.9687100649 -0.9038500190
H  4.9121603966 0.9219501019 0.8661600351
H  6.0611200333 2.9208900928 0.1737000197
H  3.5664901733 3.7229504585 -1.4365700483
H  5.0941305161 3.1423201561 -2.1191601753
H  5.0445404053 4.6783299446 -1.2454301119
H  3.3741803169 3.7497103214 0.9845901132
H  4.7392506599 4.5992503166 1.1874300241
