16

C  1.0000001192 0.0000000000 0.0000000000
C  2.4440002441 0.0000000000 0.0000000000
C  3.6341602802 0.0000000000 0.0000000000
C  5.0671806335 -0.0030000003 0.0436100028
C  5.8265304565 -0.7246900201 -1.0381201506
C  5.8313603401 0.7747300863 -1.0014801025
N  7.0677003860 1.4777801037 -0.6488600373
H  0.6059700847 1.0208600760 0.0116300005
H  0.6059200764 -0.5205400586 0.8782400489
H  0.6060100794 -0.5003200173 -0.8899500370
H  5.4929904938 -0.0480100028 1.0413501263
H  5.2707805634 -1.2050700188 -1.8357200623
H  6.7281007767 -1.2557100058 -0.7562400103
H  5.2516503334 1.2707301378 -1.7784100771
H  7.5638403893 1.0097200871 0.1081900075
H  6.8566503525 2.4154002666 -0.3072099984
