17

C  0.9984101057 0.1020500064 0.2084500194
C  2.4858002663 -0.0506500043 -0.0872300118
C  2.8595204353 -1.4874601364 -0.5119400620
C  2.7825200558 -1.4994300604 -2.0449800491
C  3.1421501637 -0.0997300074 -2.4315400124
O  2.0728302002 0.8463301063 -2.3908801079
C  2.9370703697 0.7919100523 -1.2505600452
H  0.7567600608 1.1453201771 0.4361600280
H  0.7130500674 -0.5099400282 1.0703200102
H  0.3778600097 -0.2047400177 -0.6397000551
H  3.0512502193 0.2197300196 0.8118900657
H  2.2317802906 -2.2574300766 -0.0534300059
H  3.8974003792 -1.6837501526 -0.2125200182
H  3.4762604237 -2.2319402695 -2.4678001404
H  1.7695500851 -1.7448002100 -2.3831901550
H  3.9744400978 0.0378200039 -3.1009502411
H  3.6136202812 1.6037600040 -1.0406600237
