11

N  0.9933200479 -0.1001900062 0.1255000085
C  2.2697002888 0.0079300003 0.0333000012
C  2.9883000851 1.2853701115 -0.0339600034
C  4.3151001930 1.2283800840 -0.1323900074
O  5.0443301201 0.0495800041 -0.1731400192
C  4.2763905525 -1.0725100040 -0.1002500132
N  2.9951002598 -1.1394400597 -0.0038200004
H  0.5486600399 0.8181500435 0.1451600045
H  2.4376201630 2.2132101059 -0.0033200004
H  4.9662003517 2.0893001556 -0.1908800155
H  4.9135003090 -1.9691201448 -0.1353400201
