15

C  7.1321806908 -0.1514200121 1.1328201294
N  6.1686706543 0.9179000258 0.8921200633
N  5.1892504692 0.6208500862 -0.0002500000
C  4.3858704567 1.6041501760 -0.2410300225
O  3.3098101616 1.5571501255 -1.0820100307
C  3.0958101749 0.3604300320 -1.7675001621
C  1.8833001852 0.0056800004 -2.1953601837
H  7.8967404366 0.1904900223 1.8363002539
H  7.6330308914 -0.4386000335 0.2031500190
H  6.6406102180 -1.0321301222 1.5575901270
H  5.7801604271 1.2118500471 1.7925701141
H  4.4555006027 2.6098902225 0.2075000256
H  3.9893403053 -0.2258500159 -1.9423301220
H  1.0177400112 0.6313000321 -2.0068202019
H  1.7370401621 -0.9215000272 -2.7383601665
