14

C  0.9716900587 0.0270600021 -0.1452099979
C  2.4744901657 -0.0183000024 0.0742900074
N  2.8725202084 -1.1759201288 0.8173600435
C  3.5339601040 -0.8665400743 1.9780302048
O  4.0139203072 -1.6432901621 2.7784802914
C  3.5702903271 0.5972700715 2.0760400295
C  2.9659302235 1.0662900209 0.9773601294
H  0.6440100670 -0.8318200707 -0.7411400676
H  0.6813900471 0.9403200746 -0.6753700376
H  0.4214000106 -0.0044100005 0.8022700548
H  3.0122103691 -0.0120400004 -0.8794300556
H  2.7837700844 -2.1349701881 0.5116700530
H  4.0219101906 1.1322600842 2.8910501003
H  2.8484203815 2.1174302101 0.7552101016
