11

N  0.8430300355 0.0130300010 -0.0789900050
C  2.0023701191 0.0054100007 -0.0603700057
C  3.5357801914 -0.0120900003 -0.0268200021
C  4.7360200882 -0.0243100002 -0.0019000001
C  6.1665501595 -0.0312600024 0.0254600011
C  6.9156303406 -0.7766600847 -1.0497801304
N  6.8700704575 0.6792800426 -1.0390900373
H  6.6270704269 0.0191900022 1.0074100494
H  6.3591003418 -1.2606199980 -1.8432000875
H  7.8625407219 -1.2372400761 -0.7981000543
H  7.7443704605 1.0739600658 -0.6897100210
