19

C  0.9087800980 -0.0220700018 0.0560700037
C  2.4196803570 -0.0253600013 0.0249600019
N  2.9521501064 -0.0024000001 -1.3578201532
C  3.1756403446 1.0478900671 0.8565500975
C  4.2172904015 -0.0329300016 1.2376301289
C  3.1514203548 -1.0994501114 0.8982600570
N  3.7542402744 -2.1395902634 0.0632200092
H  0.5339000821 -0.0258100033 1.0854001045
H  0.5004900694 -0.9058700800 -0.4462400377
H  0.5021400452 0.8672200441 -0.4379800260
H  3.9478604794 0.2188200206 -1.4116401672
H  2.4972701073 0.6943800449 -1.9491602182
H  2.6086201668 1.4133201838 1.7225701809
H  3.5687403679 1.9172900915 0.3200600147
H  5.1100106239 -0.0196200032 0.6001999974
H  4.5416402817 -0.0122200008 2.2821500301
H  2.5982000828 -1.4631201029 1.7706601620
H  3.8218703270 -1.8108102083 -0.9072700739
H  3.1528902054 -2.9602601528 -0.0180600006
