12

C  1.9997501373 -0.1824400127 -0.1412100196
C  0.7366500497 -0.8236600757 0.2419000119
O  -0.4361300170 -1.2468401194 -0.4584600329
C  -1.4957201481 -0.4120200574 -0.1846400201
N  -1.4308201075 0.7589900494 0.3870000243
O  -0.1061100140 1.2423601151 0.7121100426
C  0.8015400767 0.6650000215 -0.2347600162
H  2.4699802399 -0.5116300583 -1.0613200665
H  2.7161002159 0.0511500016 0.6390000582
H  0.7095000744 -1.0400700569 1.3116000891
H  -2.4396700859 -0.8600201011 -0.5268900394
H  0.5983200073 0.9369500279 -1.2703599930
