12

C  1.1092600822 -0.1328400075 -0.5706800222
O  2.4032502174 -0.0132100005 0.0054000001
C  2.8940103054 1.3385500908 0.0000000000
C  2.3940801620 2.0459301472 1.1553500891
C  1.9820401669 2.6289601326 2.1076002121
C  4.3380103111 1.3385500908 0.0000000000
N  5.4890203476 1.3385500908 0.0000000000
H  0.8047700524 -1.1814301014 -0.5123300552
H  1.1306401491 0.1624600142 -1.6241900921
H  0.3786900342 0.4706800282 -0.0241700020
H  2.5557501316 1.8354500532 -0.9183000326
H  1.6196701527 3.1453502178 2.9672303200
