8

C  0.9786700606 -0.0141100008 0.0237900019
C  2.3138303757 0.0070600007 -0.0277400017
C  3.0510601997 1.2860701084 -0.0128400009
O  4.2741799355 1.3161500692 -0.0596800037
H  0.4456600547 -0.9603800774 0.0122800013
H  0.3810400367 0.8911900520 0.0781299993
H  2.9113104343 -0.8955700397 -0.0819900110
H  2.4410002232 2.2026600838 0.0423900038
