16

C  0.9152600765 -0.3329000175 -0.1153300107
C  2.3280200958 0.1373600066 -0.1434000134
C  3.3247501850 -0.4878700376 -1.0607501268
N  2.7915701866 0.8177800775 -1.3107701540
C  3.5521202087 1.9745301008 -1.2974200249
C  4.4346804619 2.2462601662 -0.1015500054
O  3.4790601730 2.7975401878 -2.2122299671
H  0.2543200254 0.4781100452 0.2067200243
H  0.8090900779 -1.1598399878 0.5936900377
H  0.5738500357 -0.6802800298 -1.0964200497
H  2.6560902596 0.5161100626 0.8149001002
H  3.0012502670 -1.2208001614 -1.7880700827
H  4.3664002419 -0.5353800654 -0.7787200212
H  3.8338201046 2.6852700710 0.6992500424
H  5.2154402733 2.9572601318 -0.3889200091
H  4.9298906326 1.3436400890 0.2601400316
