15

C  0.8736400604 0.0299700033 -0.2501700222
C  2.3487102985 -0.0000900000 0.0482300036
C  2.6870601177 -0.0280100033 1.5145100355
C  3.2503302097 -0.7537200451 -0.9035200477
C  3.2766702175 0.7495300174 -0.8809700608
H  0.6730200648 0.0515000075 -1.3271101713
H  0.4130600393 0.9185900688 0.1943900138
H  0.3827700317 -0.8567300439 0.1646400094
H  3.7687904835 -0.0501900055 1.6854100227
H  2.2543802261 -0.9152200818 1.9883402586
H  2.2866501808 0.8599100709 2.0145900249
H  2.8078801632 -1.2398400307 -1.7664201260
H  4.1081404686 -1.2815400362 -0.5012100339
H  4.1522202492 1.2346299887 -0.4634800255
H  2.8520503044 1.2765300274 -1.7285600901
