15

O  0.7670800686 0.0219900012 -0.3904800415
C  2.1304399967 -0.0539300032 0.0090300003
C  2.7863402367 1.3104301691 0.0421900041
C  2.1251101494 2.4478302002 -0.2436100096
C  4.2208900452 1.2990601063 0.3941300213
C  4.6183800697 1.6844202280 1.7982701063
O  4.7866606712 0.3491700292 1.3136601448
H  0.4188600183 -0.8840300441 -0.3454000056
H  2.6557002068 -0.7030000687 -0.6993800402
H  2.1661000252 -0.5097800493 1.0041500330
H  1.0719000101 2.4400100708 -0.5088800192
H  2.6212301254 3.4125902653 -0.2207600176
H  4.8706102371 1.6194000244 -0.4148200452
H  3.8485403061 1.8514400721 2.5410902500
H  5.5096201897 2.2869501114 1.9300001860
