13

C  2.9042601585 -1.1121600866 0.4703900218
N  2.3062601089 0.1221800074 0.0083100004
C  3.0228703022 1.2626100779 -0.0036200003
C  2.4734301567 2.5068302155 -0.2191700190
S  3.7059702873 3.7003703117 -0.1636900157
C  4.8515000343 2.4595403671 0.1373600066
N  4.3796200752 1.2336901426 0.2021000236
H  2.1951401234 -1.9353500605 0.3345200121
H  3.1517601013 -1.0523500443 1.5355401039
H  3.8080103397 -1.3577101231 -0.0972400010
H  1.2956900597 0.1574700177 0.0736100078
H  1.4435601234 2.7698101997 -0.4056800306
H  5.9027700424 2.6797602177 0.2668600082
