17

C  0.9393600821 0.0130300010 0.0138100004
C  2.4535603523 0.0043800008 0.0136100017
C  3.1583003998 1.0039700270 0.9549700618
N  4.1596703529 -0.0459000021 1.2609901428
C  3.1510801315 -1.0741301775 0.8827000856
C  3.7617003918 -2.2566702366 0.1554200053
H  0.5507600307 -0.8417400718 -0.5481300354
H  0.5602100492 0.9255300760 -0.4560600519
H  0.5334900618 -0.0377600007 1.0298000574
H  2.8473300934 0.0550600030 -1.0117000341
H  2.5748801231 1.3106300831 1.8313400745
H  3.5651504993 1.8986101151 0.4752500355
H  4.9666004181 -0.0169700012 0.6364700794
H  2.5530202389 -1.4028000832 1.7439202070
H  4.3805103302 -1.9438600540 -0.6922000051
H  2.9744603634 -2.9120101929 -0.2302400172
H  4.3857107162 -2.8487203121 0.8321501017
