15

C  0.9293400645 -0.0574300066 -0.0327600017
C  2.4128301144 0.0559900068 -0.0267300028
C  3.1005303860 1.2081100941 -0.0110200010
C  4.5968799591 1.2320700884 0.0348500013
N  5.1813502312 -0.0681700036 -0.2816600204
N  4.5451803207 -1.2340500355 -0.0032900001
C  3.2484803200 -1.1685700417 0.0611300059
H  0.6015800238 -1.1017301083 -0.0457400009
H  0.5076600313 0.4332300425 -0.9159000516
H  0.5062400699 0.4104900360 0.8627600670
H  2.5840802193 2.1620399952 -0.0171000008
H  4.9680504799 1.9628601074 -0.6921700835
H  4.9177002907 1.5590400696 1.0305501223
H  6.1623106003 -0.1095200107 -0.0057400004
H  2.6971902847 -2.1086902618 0.2272200137
