13

C  0.9421000481 0.0257600024 -0.0081000011
C  2.4259800911 0.0045000003 -0.0006200001
C  3.2755703926 1.0939000845 0.0037600002
N  4.5673103333 0.6373600364 0.0101000005
C  4.5647902489 -0.7314400673 0.0097500002
C  3.2544102669 -1.1524800062 0.0031300001
H  0.5580000281 1.0508800745 0.0015200000
H  0.5485200286 -0.4927400351 0.8721800447
H  0.5580300093 -0.4727700353 -0.9039600492
H  3.0690901279 2.1560003757 0.0029200001
H  5.3935303688 1.2211900949 0.0143300015
H  5.4924101830 -1.2878601551 0.0142100006
H  2.9252603054 -2.1839001179 0.0012000001
