16

C  1.0009601116 -0.0537200049 0.0023700004
C  2.5200002193 0.0000000000 0.0000000000
C  3.0020201206 1.3611700535 0.0000000000
C  3.3993003368 2.4830701351 0.0000000000
C  3.8813202381 3.8442401886 0.0000000000
C  2.7450702190 4.8384599686 -0.1811600178
H  0.6572600007 -1.0930100679 0.0022300002
H  0.5855600834 0.4419200122 -0.8820100427
H  0.5883700252 0.4407500327 0.8887000680
H  2.8959302902 -0.5329500437 -0.8805600405
H  2.8987202644 -0.5339600444 0.8787500858
H  4.6128206253 3.9854302406 -0.8035400510
H  4.3993701935 4.0601601601 0.9411300421
H  2.2281601429 4.6786303520 -1.1333900690
H  3.1318702698 5.8623304367 -0.1719100028
H  2.0065102577 4.7460904121 0.6216900945
