15

C  0.9812400937 0.0615400039 0.2363200188
C  2.4186201096 -0.1026500016 -0.1979400218
O  3.2725303173 0.9208200574 0.3784400225
C  4.1348304749 -0.0224100016 1.0681800842
C  5.5476508141 0.0232000016 0.5340000391
C  3.2459301949 -1.1461800337 0.5451200604
O  3.2155702114 -2.3512902260 0.6626000404
H  0.3803100288 -0.7939100862 -0.0892900005
H  0.5454400778 0.9635201097 -0.2059500068
H  0.8922500610 0.1425500065 1.3250302076
H  2.5459103584 -0.1518100202 -1.2843601704
H  4.0688800812 0.1057000011 2.1535401344
H  5.5706701279 -0.0608300045 -0.5580800176
H  6.1439304352 -0.7963200212 0.9480000734
H  6.0342607498 0.9645200968 0.8094500303
