17

C  0.9968400598 0.0078200009 0.0383600034
C  2.5188300610 0.0137500009 -0.0569400042
C  2.9910902977 -0.8182700872 -1.2477201223
O  4.4120106697 -0.9213300347 -1.2522301674
C  2.9908201694 1.4527301788 -0.1235800087
N  3.7286903858 1.8870900869 -1.0981199741
N  4.0554704666 3.1906003952 -0.9714800715
H  0.6558400393 0.5891100764 0.9020000696
H  0.6155800819 -1.0125900507 0.1474800110
H  0.5420400500 0.4503100216 -0.8548900485
H  2.9394602776 -0.3983400166 0.8687500358
H  2.6702001095 -0.3923200369 -2.2049503326
H  2.5925202370 -1.8360900879 -1.1839400530
H  4.7358403206 -0.0140400007 -1.4288802147
H  2.6868901253 2.1081600189 0.7152900696
H  4.4949107170 3.5201504230 -1.8356400728
H  4.7677502632 3.3255903721 -0.2484100163
