15

C  1.1045800447 -0.0370400026 -0.2365400195
N  2.5153701305 0.0408100039 0.0494100042
C  3.2812201977 -1.0450401306 0.3551100194
N  4.5494303703 -0.8601100445 0.5825999975
C  4.7120904922 0.6237200499 0.4112400115
C  3.3334102631 1.1440800428 0.0313600004
C  3.0672500134 2.4226400852 -0.2551900148
H  0.6473800540 0.9486400485 -0.3652500212
H  0.5793700814 -0.5375199914 0.5844100714
H  0.9334501028 -0.6111800075 -1.1531699896
H  2.7766602039 -2.0243501663 0.3877600133
H  5.0521202087 1.0554200411 1.3579001427
H  5.4446706772 0.8152200580 -0.3787200153
H  3.8504202366 3.1726701260 -0.2227400243
H  2.0742702484 2.7561202049 -0.5302700400
