15

C  -1.2224800587 -0.7394900322 -0.4959800243
O  -1.1579500437 0.7020000815 -0.5192800760
C  -0.0043100002 1.0151700974 0.2804300189
C  -0.0151000014 -0.0409900025 1.3640201092
C  -0.0026900002 -1.1400600672 0.3261200488
C  1.2356401682 -0.7372900844 -0.4691900313
O  1.1680501699 0.7043200731 -0.4932600260
H  -1.2078801394 -1.1243500710 -1.5205501318
H  -2.1612801552 -1.0314501524 -0.0128100002
H  -0.0088000009 2.0567402840 0.6092100739
H  -0.9232000709 -0.0352500044 1.9748001099
H  0.8791300654 -0.0333200023 1.9950001240
H  -0.0052300002 -2.1710703373 0.6792800426
H  2.1633901596 -1.0268501043 0.0355200022
H  1.2440500259 -1.1217501163 -1.4925601482
