13

C  0.3987700343 0.0321600027 -0.1466800123
C  1.6313000917 -0.2307200134 0.3082100451
C  2.7686600685 0.7457400560 0.3101600111
O  3.8920001984 0.1215800047 -0.3149900138
N  4.9929404259 0.9897700548 -0.2342800200
C  6.0132403374 0.4088700414 -0.7676100731
H  -0.3773400187 -0.7264400721 -0.1155900061
H  0.1362600178 1.0022001266 -0.5568900704
H  1.8478201628 -1.2164100409 0.7128900886
H  3.0235102177 0.9999201298 1.3449701071
H  2.5146603584 1.6625101566 -0.2345800251
H  6.9837508202 0.9276000857 -0.8048100471
H  5.9701104164 -0.6055500507 -1.1990500689
