13

C  0.9563300610 -0.0170300025 0.1174100116
C  2.4569301605 0.0574100055 -0.0593100041
C  3.2087202072 1.0805500746 0.8260600567
N  4.1361703873 -0.0040000002 1.1653301716
C  3.2921802998 -0.9763700962 0.7216900587
O  3.2570202351 -2.1549301147 0.9760100842
H  0.5488400459 -0.8791500926 -0.4191100299
H  0.4784500301 0.8828000426 -0.2826200426
H  0.6746800542 -0.1104000062 1.1716001034
H  2.7452201843 0.0976000130 -1.1179000139
H  2.6730604172 1.4581000805 1.7021901608
H  3.6880800724 1.9024901390 0.2887100279
H  4.6211299896 -0.1769400090 2.0362300873
