22

C  1.2520101070 -0.1439400017 -0.5504300594
C  2.7579801083 -0.0458200015 -0.3523900509
C  3.2430901527 1.4013701677 -0.4846100509
C  4.7516202927 1.5798101425 -0.2194800228
N  5.5591106415 0.8308700919 -1.1842701435
C  5.1185803413 3.0742003918 -0.2791199982
C  6.5820002556 3.3547301292 0.0445200019
H  0.9264100194 -1.1854300499 -0.4675000608
H  0.9623800516 0.2244300246 -1.5396801233
H  0.7176800966 0.4407500327 0.2046900094
H  3.2460503578 -0.6840201020 -1.0970600843
H  3.0179703236 -0.4374300241 0.6370400786
H  2.6856501102 2.0228502750 0.2283800244
H  2.9938902855 1.7770700455 -1.4851701260
H  4.9828104973 1.2037900686 0.7848200202
H  5.2882800102 1.0863000154 -2.1331701279
H  5.3762202263 -0.1671800017 -1.0931401253
H  4.4993700981 3.6243302822 0.4405300319
H  4.8880901337 3.4840004444 -1.2700101137
H  6.8529405594 2.9498102665 1.0236500502
H  6.7612004280 4.4347305298 0.0620300025
H  7.2496705055 2.9211802483 -0.7071400881
