13

C  1.4794400930 -0.5122000575 0.7789200544
C  2.4346101284 -0.1853300184 -0.1015200093
C  3.1571302414 1.1319700480 -0.1216000095
C  4.6579198837 0.9481600523 0.0385100022
O  5.3011903763 0.0020100002 -0.3991800249
C  5.3589305878 2.0316002369 0.6971400380
C  5.9441905022 2.9297902584 1.2418200970
H  1.0013600588 -1.4869800806 0.7387000322
H  1.1523500681 0.1717700064 1.5559000969
H  2.7260301113 -0.9130800962 -0.8584000468
H  2.7847101688 1.7866401672 0.6751700640
H  2.9795801640 1.6337600946 -1.0788400173
H  6.4749603271 3.7203402519 1.7210801840
