18

C  0.9280500412 -0.1192700043 -0.0560900047
C  2.4529902935 -0.0246400014 0.0040000002
N  3.0361201763 -0.8543800712 -1.0473401546
C  2.9024302959 1.4147200584 -0.0717000067
C  3.7169001102 1.9611500502 -0.9898900390
C  4.1448602676 3.3902802467 -1.0121600628
O  5.5573000908 3.4401104450 -0.8901800513
H  0.4681600332 0.4375900328 0.7679400444
H  0.5961100459 -1.1604800224 0.0269300025
H  0.5337900519 0.2859200239 -0.9953700900
H  2.7882204056 -0.4239100218 0.9686700702
H  2.6691200733 -0.5509500504 -1.9482201338
H  2.7207801342 -1.8158200979 -0.9320000410
H  2.5226602554 2.0498402119 0.7290900350
H  4.1248703003 1.3470500708 -1.7902001143
H  3.7045502663 3.9739601612 -0.1979000121
H  3.8630905151 3.8545904160 -1.9618701935
H  5.7959504128 2.8430700302 -0.1598800123
