12

C  1.0329600573 0.2930700183 0.1279000044
C  2.3576200008 0.1114400104 -0.0006000000
C  2.9847002029 -1.2635401487 -0.0272400025
C  3.5008702278 -1.5887200832 -1.3650701046
N  3.9106802940 -1.8730200529 -2.4136102200
C  3.2010002136 1.2631400824 -0.0667300001
C  3.9139502048 2.2266001701 -0.1260400116
H  0.5962000489 1.2884900570 0.1600400060
H  0.3433000147 -0.5428299904 0.1966500133
H  2.2550902367 -2.0259001255 0.2727800310
H  3.7958703041 -1.3098500967 0.7098300457
H  4.5456900597 3.0827202797 -0.1852000207
