15

C  1.0119200945 -0.0293600019 0.2383800149
C  2.5200002193 0.0000000000 0.0000000000
O  2.7492101192 -0.6388900280 -1.2655200958
C  3.9997203350 -1.0964901447 -1.5711300373
C  5.1391806602 -0.9861600995 -0.8805900812
C  3.0020201206 1.3611700535 0.0000000000
C  3.3993003368 2.4830701351 0.0000000000
H  0.7476500273 0.4276500344 1.1977601051
H  0.6446600556 -1.0615400076 0.2311800122
H  0.4738200307 0.5016400218 -0.5557800531
H  2.9864101410 -0.5882600546 0.7998700738
H  3.9657301903 -1.5986900330 -2.5331902504
H  5.2121400833 -0.4733500481 0.0707500055
H  6.0573706627 -1.4053401947 -1.2812501192
H  3.7557902336 3.4871802330 -0.0091600008
