16

C  -1.3391801119 0.9340401292 0.5656200051
C  -1.3256601095 -0.3725500107 -0.1701400131
C  -0.3814200461 -1.4597401619 0.1991700083
C  0.8728700280 -0.9415000677 -0.3982700408
C  1.5791901350 0.2906599939 0.1253000051
N  0.6511000395 0.3115900159 -0.9957100749
C  -0.6288000941 0.7816801071 -0.7516700625
H  -2.2620103359 1.5044701099 0.5678400397
H  -0.7796700597 1.0315400362 1.4851300716
H  -2.2402603626 -0.7251100540 -0.6261900067
H  -0.3011100292 -1.5968301296 1.2820500135
H  -0.6749899983 -2.4081301689 -0.2623400092
H  1.4467101097 -1.6786900759 -0.9418300986
H  1.2966200113 0.7051900625 1.0813400745
H  2.6237602234 0.4194900393 -0.1302900165
H  -1.0986500978 1.2859401703 -1.5920101404
