19

N  1.9875901937 1.4126801491 2.7621603012
C  3.2209200859 1.5959901810 1.9914802313
C  2.9295001030 2.1584103107 0.5881200433
N  4.1274704933 2.2914299965 -0.2514000237
C  5.0705304146 3.2996702194 0.2454600185
C  6.3590502739 2.8415203094 0.8701300621
C  6.3724002838 3.4868302345 -0.4835200310
H  2.2254700661 1.0266900063 3.6748404503
H  1.4070401192 0.7118500471 2.3032901287
H  3.7382202148 0.6330400705 1.9114201069
H  3.8727903366 2.2787401676 2.5463702679
H  2.4142701626 3.1236302853 0.6631800532
H  2.2424802780 1.4749100208 0.0728100091
H  3.8256702423 2.5437901020 -1.1930201054
H  4.6230802536 4.2110204697 0.6400400400
H  6.5563001633 1.7767702341 0.9226900339
H  6.7434506416 3.4073402882 1.7101402283
H  6.7678403854 4.4932804108 -0.5619800091
H  6.5830006599 2.8583900928 -1.3409601450
