14

C  1.0333900452 0.0148300007 -0.0688700080
C  2.5231003761 0.0078600002 -0.0125400014
C  3.3121802807 -0.7063400745 -1.0767800808
C  3.3243401051 0.7951700091 -1.0135400295
N  4.5378704071 1.4815300703 -0.5856299996
H  0.6356900334 0.7882700562 0.5960600972
H  0.6391800642 -0.9521800876 0.2595800161
H  0.6585000157 0.2101200074 -1.0792701244
H  2.8822600842 -0.0678300038 1.0070400238
H  2.7796301842 -1.1694500446 -1.8996901512
H  4.2029905319 -1.2460701466 -0.7760500908
H  2.7797403336 1.3090400696 -1.8036201000
H  5.0081505775 0.9767900705 0.1644500196
H  4.3148603439 2.4013500214 -0.2067700177
