16

C  2.7810204029 -1.0547001362 -0.6644501090
N  2.2466902733 0.1867400110 -0.1122700125
C  3.3135201931 1.1945201159 0.0951900110
C  3.5636701584 2.2193901539 -0.9856700897
O  2.6751801968 2.1459801197 -2.1184501648
C  2.9329502583 2.6371502876 0.3142200410
O  3.7766003609 3.3747200966 1.2147501707
H  1.9650101662 -1.7669701576 -0.8185001016
H  3.5085403919 -1.5113201141 0.0141600007
H  3.2590003014 -0.8805700541 -1.6336200237
H  1.8043601513 -0.0212800018 0.7854200602
H  4.1782002449 0.8465000391 0.6568600535
H  4.5898203850 2.5161302090 -1.1701400280
H  2.0347602367 1.4231801033 -1.9602301121
H  1.8777402639 2.8896701336 0.3002200127
H  3.7587003708 4.3230304718 0.9958300591
