17

C  0.7445800304 2.0977799892 -0.5699900389
C  2.0801103115 1.4508501291 -0.3918300271
C  3.1990702152 2.1232302189 -0.0835200027
C  4.4801602364 1.4756300449 0.0831400007
C  5.6018004417 2.1460402012 0.3865700364
C  6.8809404373 1.4958201647 0.5519300103
C  8.0033407211 2.1597902775 0.8509501219
H  0.0295000020 1.6773900986 0.1435600072
H  0.3723800182 1.9100601673 -1.5816301107
H  0.7841700912 3.1806204319 -0.4160400331
H  2.1081600189 0.3727300167 -0.5281700492
H  3.1610901356 3.2028400898 0.0504900031
H  4.5106801987 0.3963400424 -0.0491400063
H  5.5730705261 3.2258503437 0.5186200738
H  6.9236106873 0.4160000384 0.4251400530
H  8.0198707581 3.2362203598 0.9882301092
H  8.9429311752 1.6285701990 0.9656100869
