17

C  1.0425800085 0.4995000362 -1.0828400850
C  2.5519301891 0.5580100417 -1.1953800917
O  3.0685002804 1.2218301296 -0.0455900021
C  4.5076503754 1.3637601137 0.0017900001
C  5.1456799507 2.4644501209 -0.8565200567
O  5.8945307732 2.9709601402 0.2767800093
C  5.0780005455 2.1743302345 1.1733601093
H  0.6057000160 -0.0035900003 -1.9499702454
H  0.6218400002 1.5082900524 -1.0102901459
H  0.7438500524 -0.0359600037 -0.1757500172
H  2.8420002460 1.1085600853 -2.0962400436
H  2.9659602642 -0.4542700350 -1.2466801405
H  5.0037808418 0.3911600411 -0.1049500033
H  4.4605402946 3.2219402790 -1.2499001026
H  5.8039407730 2.1089701653 -1.6538801193
H  5.6874003410 1.6049801111 1.8804501295
H  4.3613505363 2.7974302769 1.7174100876
