12

O  0.9852300882 -0.0015600001 -0.0572500043
C  2.4033000469 0.0883300081 0.0589600056
C  2.8567502499 1.5158400536 0.0296000019
C  2.0794601440 2.6048500538 -0.0878100097
C  4.3220705986 1.7211201191 0.1438200027
O  5.1085305214 0.7865101099 0.2547700107
H  0.7688800693 -0.9492400885 -0.0309000015
H  2.8453903198 -0.4694000483 -0.7734300494
H  2.6944801807 -0.3849000335 1.0027600527
H  1.0007700920 2.5030601025 -0.1742500216
H  2.4761700630 3.6136202812 -0.1021500081
H  4.6692104340 2.7676601410 0.1234500110
