17

C  1.8625302315 -0.8535800576 -0.9166001081
C  2.9993700981 -0.4616800249 0.0143300015
C  3.0659301281 1.0249600410 0.2037100196
C  4.1261000633 1.7758301497 -0.1314200014
C  4.1206002235 3.2496602535 0.0977500081
C  5.3549404144 4.0098104477 -0.3092700243
O  3.1636202335 3.8176503181 0.6192700267
H  1.8259701729 -1.9416902065 -1.0309300423
H  1.9949901104 -0.4128000438 -1.9104201794
H  0.8952900767 -0.5231500268 -0.5229500532
H  3.9433903694 -0.8489601016 -0.3866000175
H  2.8489403725 -0.9344300628 0.9915800691
H  2.1921000481 1.4972401857 0.6527900100
H  5.0151305199 1.3428201675 -0.5733900666
H  5.9802803993 3.4208002090 -0.9854701161
H  5.9321403503 4.2645101547 0.5831900239
H  5.0573406219 4.9215207100 -0.8348500729
