21

C  0.9827000499 0.0184700023 -0.0156900007
C  2.5005202293 0.0147400014 0.0456500016
C  3.0693304539 1.1241601706 0.9245300293
C  4.4979305267 0.6587600708 1.1573400497
C  4.3594903946 -0.8484200835 1.3911100626
C  5.5908603668 -1.6227101088 0.9432500601
C  3.0803000927 -1.2704401016 0.6481700540
H  0.6197200418 -0.8058500886 -0.6380100250
H  0.6166300774 0.9560800195 -0.4466400445
H  0.5406500697 -0.0897700116 0.9804500937
H  2.8945002556 0.1323600113 -0.9726000428
H  2.5305500031 1.1922801733 1.8772901297
H  3.0301203728 2.1025202274 0.4363100231
H  5.1074504852 0.8668100834 0.2692600489
H  4.9611306190 1.1657201052 2.0089702606
H  4.2107501030 -1.0274101496 2.4643502235
H  5.7774806023 -1.4905500412 -0.1264900118
H  5.4638204575 -2.6933403015 1.1348000765
H  6.4789805412 -1.2842100859 1.4873700142
H  3.2681202888 -2.0143501759 -0.1338600069
H  2.3810703754 -1.7231601477 1.3615301847
