15

C  1.7348600626 -1.6844701767 0.7906700969
C  3.0552604198 -1.0378900766 1.1132500172
O  3.6028602123 -1.2072701454 2.2036001682
C  3.6424601078 -0.1224100143 0.0559700057
C  5.1606006622 -0.0629200041 0.1509699970
C  5.7994904518 -1.3524001837 -0.3024900258
O  5.2048802376 -2.2350103855 -0.9142100811
H  0.9989100695 -0.9138100743 0.5495900512
H  1.3810400963 -2.2521102428 1.6554601192
H  1.8590301275 -2.3663501740 -0.0539400019
H  3.2154800892 0.8740600348 0.2149000168
H  3.3287904263 -0.4709900320 -0.9343301058
H  5.4921102524 0.1370500177 1.1751002073
H  5.5477805138 0.7349200249 -0.4912900329
H  6.8799905777 -1.4399900436 -0.0962800086
