16

N  0.9363500476 0.1440100074 -0.2990500331
C  2.1397402287 0.0651700050 0.3455200195
O  2.3865602016 -0.9253600836 1.0322600603
C  3.0844202042 1.2717200518 0.1202100143
C  2.4979801178 2.7089700699 0.2077300251
C  3.8297004700 3.1453402042 0.8455600142
C  4.0048704147 1.6860301495 1.3030200005
H  0.6728600264 0.9199000597 -0.8892000318
H  0.2913300097 -0.6276900768 -0.1829900146
H  3.6658003330 1.1289700270 -0.8035500646
H  1.6361800432 2.8069002628 0.8783900738
H  2.2593801022 3.1822800636 -0.7484900355
H  4.5810503960 3.4729502201 0.1180100068
H  3.7551600933 3.8891801834 1.6424400806
H  5.0274806023 1.3015701771 1.2647001743
H  3.5849304199 1.4811600447 2.2948801517
