15

N  0.9668100476 1.9707701206 -1.3720701933
N  2.3414702415 1.6576400995 -1.3024700880
C  2.9811000824 1.6673101187 -0.0678800046
O  2.3964002132 1.8841201067 0.9924200773
C  4.4788703918 1.4157301188 -0.1517700106
C  5.2078404427 2.7257602215 -0.2072900236
C  6.0031504631 3.1075003147 -1.2152900696
H  0.8053100109 2.7569701672 -0.7292700410
H  0.4590300322 1.2019699812 -0.9211200476
H  2.8913602829 1.6797502041 -2.1595201492
H  4.7022500038 0.7853100300 -1.0202100277
H  4.7830905914 0.8540900350 0.7385300398
H  5.0681004524 3.3956303596 0.6404300332
H  6.1832404137 2.4765303135 -2.0801103115
H  6.5025706291 4.0719704628 -1.1895500422
