18

C  0.8342500329 -0.1180300117 0.1330400109
C  2.3191103935 0.0018300002 0.2599500120
C  3.0912902355 1.0794200897 0.0037400003
C  2.5216002464 2.4213001728 -0.3889200091
C  4.5592803955 1.0429100990 0.1552000046
C  5.3684201241 0.1028400064 -0.7061300278
N  5.3756303787 1.5360801220 -0.9532901049
H  0.5900800824 -1.0205399990 -0.4368300140
H  0.3718000352 0.7244100571 -0.3852000237
H  0.3817000389 -0.2099500149 1.1248800755
H  2.8139202595 -0.9155100584 0.5776399970
H  1.4793101549 2.5465700626 -0.0834300071
H  2.5855503082 2.5583002567 -1.4731000662
H  3.0811002254 3.2306203842 0.0940000042
H  4.9245505333 1.2637001276 1.1533001661
H  4.8619804382 -0.5000900626 -1.4497500658
H  6.2716403008 -0.3277000189 -0.2934600413
H  6.2306504250 1.9665001631 -0.5997800827
