16

C  -0.1231400073 1.3877301216 0.5427200794
C  -1.4879701138 0.7443500757 0.2685800195
C  -1.5918301344 -0.4982700348 -0.2608800232
C  -0.3567500412 -1.3735101223 -0.5039700270
C  0.7926300764 -0.8269200921 0.2742000222
N  2.0522301197 -0.1835400015 0.0503800064
C  0.9196600318 0.6425200105 -0.2193300128
H  0.0747400075 1.4018300772 1.6203801632
H  -0.1490500122 2.4267001152 0.1958700269
H  -2.3754801750 1.3352600336 0.4745600224
H  -2.5655400753 -0.9239900708 -0.4844900370
H  -0.5745200515 -2.3890001774 -0.1549300104
H  -0.1438800097 -1.4309501648 -1.5772700310
H  0.6332400441 -1.0285700560 1.3326500654
H  2.4925203323 -0.5250300169 -0.8050100803
H  0.8199100494 0.8767800331 -1.2780001163
