17

C  0.9260000587 0.0057800007 0.3046800196
C  2.4367201328 0.0222100019 0.0727699995
C  2.8327100277 1.2368100882 -0.7652300596
N  4.2195501328 1.0678501129 -1.1834900379
N  4.5246806145 0.0083800005 -1.9690701962
C  3.9126803875 -1.0973800421 -1.6775201559
C  2.9089803696 -1.2866801023 -0.5684900284
H  0.5955600142 0.9280300736 0.7940200567
H  0.6388000250 -0.8374601007 0.9410700798
H  0.3818900287 -0.0858500078 -0.6427100301
H  2.9236302376 0.1080700085 1.0541900396
H  2.7396900654 2.1481599808 -0.1646000147
H  2.1869900227 1.3529901505 -1.6429300308
H  4.5677003860 1.9276602268 -1.6132501364
H  4.1520800591 -1.9916001558 -2.2768402100
H  2.0717802048 -1.8540902138 -0.9910100698
H  3.3725602627 -1.9331101179 0.1870500147
