19

C  3.1218903065 -1.3399101496 -0.6796400547
C  2.5232200623 -0.2253200114 0.1784700006
N  2.3797402382 -0.6705600023 1.5828301907
C  3.3170902729 1.1226500273 0.0656900033
N  2.7292802334 2.1177501678 0.9774300456
C  4.7780303955 1.0023200512 0.4180600345
C  5.7842102051 1.0905101299 -0.4635400176
H  3.2171902657 -1.0133000612 -1.7202302217
H  2.4770300388 -2.2254002094 -0.6693500280
H  4.1108803749 -1.6466701031 -0.3254200220
H  1.5059301853 -0.0355600044 -0.1891000122
H  3.3110301495 -0.8552900553 1.9603601694
H  1.8958401680 -1.5681902170 1.5999702215
H  3.2161402702 1.5002501011 -0.9598000646
H  2.5234701633 1.6081701517 1.8443100452
H  1.8046901226 2.3612802029 0.6254500747
H  5.0196003914 0.8539500833 1.4677801132
H  5.6055703163 1.2528101206 -1.5198700428
H  6.8157606125 1.0107800961 -0.1328000128
