14

C  1.0435600281 -0.0194800012 0.1159900054
C  2.3813800812 -0.0042700004 0.0346600004
C  3.2249102592 1.2286601067 -0.0292700026
N  4.4171905518 0.7448300719 -0.6428101063
C  4.5069899559 -0.6256400347 -0.6879100204
O  5.4845304489 -1.2399901152 -1.0865000486
C  3.2360904217 -1.2309401035 -0.1452600062
H  0.4885000288 -0.9531900883 0.1050000042
H  0.4695100188 0.8992701173 0.1919200122
H  3.4759202003 1.6033600569 0.9668601155
H  2.7957801819 2.0208301544 -0.6474900842
H  5.2054104805 1.3173701763 -0.9139800668
H  2.8143100739 -1.9304301739 -0.8708600402
H  3.4478702545 -1.7150502205 0.8115800619
