16

O  0.8711300492 0.1463800222 -0.3419800103
C  2.0107500553 0.1378200054 0.1154300049
C  2.9885401726 1.2784401178 -0.0319200009
C  2.3156301975 2.6413402557 -0.1243700087
C  3.2627902031 3.5551803112 0.6267900467
N  3.7097902298 2.7157201767 1.7334501743
C  3.9208102226 1.3802801371 1.1750900745
H  2.4144701958 -0.7849200964 0.5672400594
H  3.5849702358 1.0814200640 -0.9312000275
H  1.3296600580 2.6390800476 0.3570500314
H  2.1792500019 2.9595003128 -1.1629800797
H  4.1117305756 3.8427903652 -0.0048400001
H  2.7656702995 4.4628500938 0.9807000756
H  4.5620102882 3.0851402283 2.1524100304
H  4.9622201920 1.2808600664 0.8456600904
H  3.7385404110 0.6188300252 1.9400700331
