15

C  0.9602400661 -0.0659600049 0.4021100402
C  2.2646901608 0.4778100252 -0.1724900007
C  2.5257401466 0.0125800017 -1.6054902077
C  1.4509000778 0.4469900429 -2.5706703663
O  0.5289300084 -0.2885500193 -2.9122202396
C  2.2852702141 1.9873101711 -0.0434900038
O  2.5696601868 2.7476501465 -0.9630801082
H  0.8563000560 0.2131400257 1.4565800428
H  0.9311301112 -1.1585700512 0.3396899998
H  0.0867800117 0.3346300125 -0.1231000125
H  3.0888402462 0.1137100086 0.4540200233
H  2.5905401707 -1.0813400745 -1.6396800280
H  3.4795701504 0.4020200372 -1.9794300795
H  1.5063000917 1.4895401001 -2.9273402691
H  2.0764303207 2.3827402592 0.9663700461
