17

C  0.5832400918 0.9595100284 1.0239700079
C  1.9999800920 1.3744901419 0.8101800680
C  2.3667700291 2.4556403160 0.1129300073
O  3.6853501797 2.8028202057 -0.0344800018
C  4.0654006004 3.8154103756 -0.9088400602
C  3.3262801170 3.9749302864 -2.2055201530
C  5.1545205116 4.5369005203 -0.6140400767
H  0.3519200385 0.9590600729 2.0935702324
H  0.4291900396 -0.0527700037 0.6380800605
H  -0.1233600080 1.6272500753 0.5211500525
H  2.7696900368 0.7501300573 1.2568401098
H  1.6566101313 3.1306302547 -0.3404000401
H  3.1713700294 3.0018103123 -2.6826403141
H  3.8838202953 4.5985603333 -2.9131503105
H  2.3542802334 4.4514904022 -2.0462701321
H  5.6963200569 4.3641901016 0.3106300235
H  5.5279603004 5.3079199791 -1.2784100771
