16

C  0.8410601020 0.0464700051 0.0483100042
C  0.4234700203 -0.1544100046 1.4710301161
C  -0.6233600378 0.7191900015 2.1114902496
O  -0.9317900538 -0.6000800133 1.6360701323
N  2.0361402035 0.8985700607 0.0436700024
C  3.2699801922 0.1859200150 -0.2824100256
C  2.5990600586 1.0761500597 -1.2930101156
H  1.0011401176 -0.9339700937 -0.4175500572
H  0.0414000042 0.5428299904 -0.5150500536
H  1.1809301376 -0.6146100163 2.0902001858
H  -1.0135900974 1.5598801374 1.5521900654
H  -0.5794100761 0.8684400916 3.1823902130
H  3.2377302647 -0.8861801028 -0.4332500398
H  4.1678004265 0.5531200171 0.2001900077
H  3.0411701202 2.0451502800 -1.4909101725
H  2.0917801857 0.6190200448 -2.1338002682
