18

C  1.0147900581 -0.1432100087 0.2402300239
C  2.4933602810 0.0438300036 -0.0843900070
C  2.8020403385 0.0372900032 -1.5917401314
N  2.2436802387 1.2045201063 -2.2823603153
C  3.2040402889 1.1389300823 0.7381300926
C  4.0173301697 -0.0058700005 1.3259902000
O  3.2691900730 -0.9952800870 0.5825999975
H  0.8561300635 -0.2549300194 1.3185501099
H  0.6166300774 -1.0393800735 -0.2469200194
H  0.4243800342 0.7165800333 -0.0916800052
H  2.4125201702 -0.8765300512 -2.0547502041
H  3.8871402740 0.0362900011 -1.7485001087
H  1.2267001867 1.1304100752 -2.3017103672
H  2.5370802879 1.1773101091 -3.2590401173
H  2.5783600807 1.6674700975 1.4628101587
H  3.7913701534 1.8646101952 0.1692300141
H  5.0759902000 -0.0182200018 1.0505501032
H  3.9113004208 -0.1493000090 2.4050102234
