13

C  0.9534100890 0.0014700001 -0.0082400013
C  2.4432601929 0.0426500030 -0.0007300000
C  3.2048404217 1.1946500540 0.0018200001
S  4.8843102455 0.8749101162 0.0105000008
C  4.6287102699 -0.8122000694 0.0108300010
O  5.6734104156 -1.6343400478 0.0167800002
C  3.2848000526 -1.1187101603 0.0044400003
H  0.5241100192 1.0088701248 0.0015800002
H  0.5831800699 -0.5337800384 0.8722900748
H  0.5919300318 -0.5131000280 -0.9045801163
H  2.8586401939 2.2192699909 -0.0009600001
H  5.3253407478 -2.5407102108 0.0159400012
H  2.9078500271 -2.1335201263 0.0034800004
