19

C  0.9812700748 0.0184500013 -0.0094100004
C  2.4984102249 -0.0211700015 0.0293900035
C  3.0772202015 -1.1337801218 0.9164900780
C  3.9156002998 -0.2791399956 1.8708101511
C  4.5921006203 0.7963500619 0.9636800885
C  3.0934402943 1.1926701069 0.7533301115
C  2.9831602573 0.8999900818 2.2872302532
H  0.5879099965 -0.8733800650 -0.5084500313
H  0.6343600750 0.8993600607 -0.5601601005
H  0.5391300321 0.0638500080 0.9909800887
H  2.8871703148 -0.0943500027 -0.9930100441
H  3.7007801533 -1.8252301216 0.3405700028
H  2.3111002445 -1.7069401741 1.4487801790
H  4.5128307343 -0.7689300179 2.6387801170
H  5.1356801987 0.4306100309 0.0872200057
H  5.2173705101 1.5350800753 1.4783501625
H  2.8740103245 2.1965501308 0.3905300200
H  3.4263801575 1.6514800787 2.9508702755
H  1.9992001057 0.6321099997 2.6805202961
