15

C  0.5143100619 -0.2474900186 0.0627700016
C  1.9681901932 -0.5263400078 0.3026500344
C  2.4522001743 -1.7446501255 0.5726500154
O  2.8361403942 0.5849300623 0.3695500195
C  2.9262802601 1.3594501019 -0.7593400478
C  3.8628902435 2.5009703636 -0.4943600297
O  2.3564202785 1.1807900667 -1.8270101547
H  0.1959300190 0.6301800609 0.6346100569
H  -0.1121700108 -1.0889301300 0.3779800236
H  0.3154300153 -0.0659000054 -0.9969400764
H  1.8120001554 -2.6205201149 0.5779300928
H  3.5053503513 -1.8917601109 0.7882100344
H  4.8439006805 2.1166701317 -0.2034800202
H  3.4523901939 3.1428000927 0.2890300155
H  3.9804501534 3.0928902626 -1.4068402052
