12

C  1.0518901348 0.0459600016 0.0058600004
C  2.5437102318 -0.0387600027 0.0043100002
C  3.2421503067 -1.1852601767 -0.0003600000
C  4.6191506386 -0.7126600742 -0.0001800000
O  5.6468505859 -1.3464500904 -0.0033300002
C  4.5037903786 0.7788300514 0.0050600003
N  3.2672502995 1.1428401470 0.0075100008
H  0.5910500288 -0.9470201135 0.0004600000
H  0.7009300590 0.5858900547 -0.8786301017
H  0.7023500800 0.5756100416 0.8973200917
H  2.9175002575 -2.2068402767 -0.0035500003
H  5.4114203453 1.3947800398 0.0061800005
