19

C  0.9380700588 -0.1491300166 -0.1134900078
C  2.4402203560 0.1570500135 -0.0794000104
N  3.0709102154 -0.4724600315 -1.2437900305
C  2.8322601318 1.6296601295 -0.0205800012
C  1.9385000467 2.6380801201 -0.0742400065
C  4.3250403404 1.8583401442 0.1598500162
N  4.7288603783 3.2621903419 0.2245100141
H  0.4321600199 0.2665600181 0.7641700506
H  0.7622600198 -1.2307301760 -0.1058800146
H  0.4585000575 0.2561600208 -1.0119200945
H  2.8442900181 -0.3229800165 0.8209000826
H  2.6488001347 -0.0876200050 -2.0883002281
H  2.8437602520 -1.4656801224 -1.2492901087
H  0.8723500371 2.4768400192 -0.1825200170
H  2.2471201420 3.6765704155 0.0110900002
H  4.8747406006 1.3916100264 -0.6645800471
H  4.6445202827 1.3702200651 1.0875101089
H  4.5660705566 3.6752703190 -0.6925500631
H  5.7364201546 3.2985703945 0.3663300276
