13

C  2.6817603111 -1.1639901400 0.3608900309
C  2.2132899761 0.0754500031 0.1670400053
C  2.9978902340 1.2600700855 0.0977200121
C  2.4973802567 2.5252802372 -0.1021500081
N  3.5760502815 3.3624103069 -0.1018500105
N  4.7463102341 2.7295503616 0.0846100077
C  4.3920102119 1.4461801052 0.2063100189
H  2.0001800060 -2.0085101128 0.3988000154
H  3.7379302979 -1.3766801357 0.4859600365
H  1.1363600492 0.1906400174 0.0518000051
H  1.4952101707 2.9029703140 -0.2419900149
H  3.5887403488 4.3697600365 -0.2223200053
H  5.1655602455 0.7072700858 0.3682900369
