12

O  2.4337601662 -0.7510300875 -0.9795900583
C  2.0870602131 0.2284500301 -0.3304600120
C  0.7328300476 0.3763200343 0.1681200117
N  -0.3439500332 0.5252500176 0.5814000368
C  3.0591201782 1.2944700718 0.0280000027
C  3.8404302597 1.9921901226 -1.0628499985
C  2.7966601849 2.7473602295 -0.2943100035
H  3.6105301380 1.0804901123 0.9388300180
H  3.6302602291 1.7348101139 -2.0961000919
H  4.8831405640 2.2207100391 -0.8717800379
H  3.1324100494 3.4937002659 0.4181900322
H  1.8880500793 3.0228402615 -0.8192200661
