10

O  2.7899804115 -1.1060800552 0.0631200001
C  2.2154300213 -0.0229700003 -0.0050800005
C  2.8421800137 1.2670100927 0.0077600004
C  2.3358802795 2.5449502468 -0.0604000054
C  3.4733903408 3.3689203262 0.0007000001
N  4.5996503830 2.6612102985 0.0991300046
O  4.1998901367 1.3328601122 0.1035300121
H  1.1151700020 0.0018200001 -0.0846500099
H  1.3009201288 2.8406302929 -0.1420200169
H  3.5361301899 4.4481606483 -0.0216800030
