14

O  1.4065999985 0.1659500152 0.9292901158
C  2.4243302345 0.0584000051 0.2475300133
C  3.0308003426 -1.2934101820 -0.0538800023
C  4.0052204132 -1.2673300505 -1.2180600166
C  4.8824505806 -0.0380200036 -1.1050100327
O  4.0457501411 1.1128400564 -1.2103201151
N  3.1216602325 1.1589001417 -0.1469900161
H  2.2252199650 -2.0057802200 -0.2618800104
H  3.5490002632 -1.6225301027 0.8549600840
H  4.6088604927 -2.1803803444 -1.2301701307
H  3.4371902943 -1.2246600389 -2.1553001404
H  5.4471101761 -0.0091700014 -0.1654800177
H  5.5989103317 -0.0065100007 -1.9318201542
H  2.6901502609 2.0622701645 0.0150400009
