16

C  0.8959500790 0.0846100077 0.1289499998
C  2.4025101662 -0.0552300029 0.1236900091
C  3.2138800621 1.0673600435 0.8139100671
C  3.8745203018 -0.0933100060 1.5794900656
O  4.9018301964 -0.2791100144 2.1853702068
N  2.8705701828 -0.9432500601 1.2056900263
C  3.0926504135 -2.3556201458 1.0766400099
H  0.4209200144 -0.8314300776 -0.2381000072
H  0.5858900547 0.9047700167 -0.5266800523
H  0.5052000284 0.2900000215 1.1317000389
H  2.8025903702 -0.3511500061 -0.8546500802
H  2.6559803486 1.7517001629 1.4591001272
H  3.8891003132 1.6226100922 0.1598300040
H  2.2067000866 -2.8220200539 0.6394600868
H  3.2778801918 -2.7732701302 2.0700600147
H  3.9692604542 -2.5376901627 0.4483000338
