17

C  2.1136500835 -0.5775900483 -1.3682600260
C  2.4648802280 -0.0326500013 0.0081200004
C  3.2333302498 1.2825000286 -0.0898100063
O  4.4933404922 1.0658800602 -0.7786200643
C  2.4177303314 2.5167801380 -0.5395000577
O  2.8787302971 3.2774903774 0.6070300341
C  3.3366801739 2.0565502644 1.2450100183
H  1.5499001741 -1.5110400915 -1.2729200125
H  3.0133402348 -0.7852000594 -1.9564701319
H  1.5011101961 0.1335500032 -1.9318801165
H  3.0642902851 -0.7744700313 0.5485700369
H  1.5385500193 0.1034400091 0.5791000724
H  4.9247503281 1.9401100874 -0.7860000730
H  1.3281401396 2.4125502110 -0.5350200534
H  2.7395102978 2.9738001823 -1.4795401096
H  4.3485307693 2.1689903736 1.6451200247
H  2.6580500603 1.7487400770 2.0469801426
