19

C  0.8556000590 0.0586900041 0.0266200025
C  2.3710303307 -0.0673800111 -0.0202500001
C  3.0422601700 1.3069300652 -0.0375300013
C  4.5659704208 1.2264901400 -0.1452300102
C  5.1968107224 0.6045800447 1.0622801781
C  5.8002800941 -0.7753500342 1.0138801336
O  6.6113405228 0.4046100080 0.9348400831
H  0.3926100135 -0.9326100945 0.0464400053
H  0.4789400399 0.5922100544 -0.8517500162
H  0.5350900888 0.6012700200 0.9218400717
H  2.6577801704 -0.6349100471 -0.9133900404
H  2.7039303780 -0.6419700384 0.8516200781
H  2.7645401955 1.8619201183 0.8663700819
H  2.6650900841 1.8802101612 -0.8928800821
H  4.9599204063 2.2448801994 -0.2514100075
H  4.8458905220 0.6837800741 -1.0568200350
H  4.8388304710 1.0022900105 2.0018901825
H  5.6940307617 -1.3669600487 0.1139400154
H  5.8435301781 -1.3492801189 1.9301601648
