16

O  0.8386000395 0.7104000449 0.7889400125
N  1.8510001898 0.8283100128 -0.1709700078
C  2.9636502266 1.1129001379 0.4254200459
C  4.2331604958 1.2979100943 -0.3595000207
C  4.7668600082 2.6931903362 -0.2372800112
C  5.9015007019 3.0086603165 0.7045800686
C  6.1352205276 3.0160901546 -0.7807500362
H  0.0595000051 0.4943400323 0.2431900203
H  3.0269401073 1.2303401232 1.5216501951
H  4.0396704674 1.0730301142 -1.4142501354
H  4.9594602585 0.5650100708 0.0135500003
H  3.9961702824 3.4427103996 -0.3876700401
H  6.3504204750 2.2062799931 1.2789701223
H  5.8868703842 3.9635503292 1.2184201479
H  6.2712407112 3.9748802185 -1.2698000669
H  6.7275304794 2.2154600620 -1.2084000111
