13

C  0.9959701300 -0.0373400003 -0.0747500062
C  2.5200002193 0.0000000000 0.0000000000
O  2.9079802036 -0.6402900219 1.2166301012
C  3.0903203487 -0.8358700871 -1.1486001015
O  4.0716104507 -0.5425200462 -1.8297001123
C  3.0020201206 1.3611700535 0.0000000000
C  3.3993003368 2.4830701351 0.0000000000
H  0.6239600182 0.4104900360 -1.0034400225
H  0.5450000763 0.4992300272 0.7688700557
H  0.6229100227 -1.0672800541 -0.0233600009
H  3.8606603146 -0.4638000429 1.3260500431
H  2.5929701328 -1.8095400333 -1.3036100864
H  3.7602503300 3.4860203266 -0.0056200004
