13

C  0.9984300733 -0.0074600005 -0.0053200005
C  2.4769501686 0.0462400056 0.0013500000
C  3.3096401691 1.1487801075 -0.0061400007
N  4.5662803650 0.6287400126 0.0011400002
O  5.7529301643 1.3470001221 -0.0104800016
C  4.4742002487 -0.7278500199 0.0128500005
N  3.2169003487 -1.1172500849 0.0144200008
H  0.5638900399 0.9969100952 0.0042000003
H  0.6342500448 -0.5462100506 0.8746600747
H  0.6422300339 -0.5260700583 -0.9006400704
H  3.1060302258 2.2086801529 -0.0179900005
H  5.4163303375 2.2537500858 0.0621800050
H  5.3441300392 -1.3685300350 0.0185600016
