15

C  1.0734601021 -0.0155700007 0.0970800072
C  2.5669603348 -0.0084700007 0.0480900034
N  3.2818002701 -1.0956400633 -0.0514600016
N  4.5898499489 -0.7046200633 -0.0041100001
C  4.7564506531 0.7465100884 -0.1451700032
C  3.3680102825 1.2363500595 0.0815400109
C  2.9253802299 2.4786403179 0.2982000113
H  0.6977400184 -1.0350000858 -0.0256500021
H  0.6730300188 0.6067900062 -0.7069600224
H  0.7351500392 0.3721600175 1.0621000528
H  5.1740307808 -1.2357201576 -0.6497800350
H  5.0903201103 0.9936500192 -1.1579600573
H  5.4672503471 1.1299700737 0.5919800401
H  3.6148102283 3.3167302608 0.3176900148
H  1.8769201040 2.6931700706 0.4699500203
