19

C  1.4742500782 -0.1060200110 -0.7827100158
O  2.3651201725 0.1293900162 0.3059500158
C  3.0559303761 1.3237401247 0.1570000201
C  2.2114901543 2.5648300648 0.2592900097
C  4.4018702507 1.3089600801 0.0542500019
C  5.1972904205 0.0270800013 0.0614700057
C  5.2550206184 2.5412001610 -0.0923600122
H  1.0923100710 -1.1269700527 -0.6897600293
H  1.9927102327 -0.0213100016 -1.7441102266
H  0.6211200356 0.5787900090 -0.7468701005
H  1.3432801962 2.3831100464 0.9024900198
H  1.8507301807 2.8633201122 -0.7297400832
H  2.7522401810 3.4039902687 0.7056000233
H  4.5783901215 -0.8667100668 0.1827600151
H  5.9194207191 0.0387100019 0.8847801089
H  5.7471504211 -0.0804300010 -0.8795200586
H  4.6778206825 3.4487502575 -0.2851700187
H  5.9433903694 2.4244301319 -0.9366800785
H  5.8471102715 2.6992902756 0.8148000836
