14

C  1.0068000555 -0.0817100108 0.0002600000
C  2.5002102852 0.0252400022 -0.2879600227
C  2.9046201706 -0.8805200458 -1.4286700487
O  2.3055400848 -1.9100301266 -1.7293300629
C  2.8850603104 1.4631201029 -0.5596600175
N  2.8705801964 2.2918901443 0.5242800117
O  3.2125101089 1.8871101141 -1.6618201733
H  0.7077700496 0.5681300163 0.8290801048
H  0.7290100455 -1.1082301140 0.2631400228
H  0.4160300195 0.2071000189 -0.8769000173
H  3.0733802319 -0.3088300228 0.5860400796
H  3.8643903732 -0.6361100674 -1.9187601805
H  2.6467003822 1.9877201319 1.4618501663
H  3.1331100464 3.2592804432 0.3804800510
