14

C  0.9512000680 -0.0026700001 0.0895900130
C  2.4603002071 0.0263900012 -0.0274300016
C  3.1983001232 1.0710500479 0.8611000776
C  4.2165303230 -0.0021400002 1.3183801174
C  3.2239601612 -1.0516800880 0.7773500681
O  3.0912401676 -2.2457802296 0.9359201193
H  0.5398400426 -0.8681400418 -0.4406300485
H  0.5137600303 0.8990000486 -0.3516200185
H  0.6260001063 -0.0608500019 1.1339600086
H  2.7889301777 0.0494700037 -1.0743701458
H  2.5956101418 1.4709900618 1.6856800318
H  3.6336503029 1.9133201838 0.3147900105
H  5.1664404869 0.0050900006 0.7764400244
H  4.3935003281 -0.0503900051 2.3942401409
