13

N  0.9967800975 1.7343702316 -1.5311501026
C  2.2494900227 2.0020802021 -1.4067100286
N  2.8831200600 2.1229400635 -0.2085200101
O  4.2203702927 1.7129601240 -0.2638300359
C  5.0123605728 2.8019001484 0.2268000096
C  6.4315605164 2.4336302280 0.1636600196
C  7.5944304466 2.1340901852 0.1104200035
H  0.7570101023 1.7027000189 -2.5289301872
H  2.9017100334 2.1684401035 -2.2820103168
H  2.3490400314 1.7014701366 0.5495600700
H  4.7276206017 3.0220100880 1.2623502016
H  4.8318305016 3.6913204193 -0.3882000148
H  8.6243009567 1.8664901257 0.0605000034
