15

C  0.8883400559 -0.3958300352 0.0669900030
C  2.3429403305 0.0579100028 0.0210100021
O  3.0731704235 -0.8231200576 -0.8255700469
C  2.6079702377 1.4503800869 -0.4738200307
C  1.6977400780 2.3448703289 -0.8860101104
C  2.1202101707 3.6838603020 -1.3447201252
O  1.3004001379 4.5070405006 -1.7331501245
H  0.2923400402 0.2303100228 0.7385400534
H  0.8277800679 -1.4321100712 0.4181000292
H  0.4320100248 -0.3807700276 -0.9294101000
H  2.7686600685 -0.0344600007 1.0263100863
H  2.6644802094 -0.7858800888 -1.7074100971
H  3.6638002396 1.7204101086 -0.4752800167
H  0.6312900782 2.1557803154 -0.9124001265
H  3.2019002438 3.8953502178 -1.3188301325
