20

C  0.9736400843 0.0557300076 0.1182000116
C  2.4997301102 0.0096500004 -0.0125200003
C  2.9804000854 -1.3539299965 -0.5281200409
C  2.6978702545 -1.5308901072 -2.0194602013
C  3.2055602074 -0.3399700224 -2.8285501003
N  2.6669301987 0.9250000715 -2.3261501789
C  3.0241601467 1.1327401400 -0.9206100702
H  0.6553200483 1.0116300583 0.5487200618
H  0.6195400357 -0.7406600714 0.7815400362
H  0.4684600532 -0.0598800071 -0.8453500271
H  2.9156801701 0.1587500125 0.9920400381
H  2.5182502270 -2.1695899963 0.0403500013
H  4.0630903244 -1.4316600561 -0.3645900488
H  3.1774401665 -2.4494702816 -2.3763301373
H  1.6204700470 -1.6562801600 -2.1810100079
H  4.3019499779 -0.3127599955 -2.8142702579
H  2.9032602310 -0.4622300565 -3.8741402626
H  3.0395801067 1.6933100224 -2.8840401173
H  4.1146802902 1.2081900835 -0.8258100748
H  2.6145401001 2.0946402550 -0.5917400122
