12

C  1.0476500988 0.0008300001 -0.0693100020
C  2.5351302624 0.0215600003 0.0039500003
N  3.3238501549 -0.6711500287 -1.0062201023
C  3.3500802517 0.8017200232 -1.0032500029
C  4.5161004066 1.5092101097 -0.5440100431
N  5.4372701645 2.1097700596 -0.1765600145
H  0.6306000948 0.7841300368 0.5714000463
H  0.6645800471 -0.9631400704 0.2802700102
H  0.6792100668 0.1655300111 -1.0874500275
H  2.8983902931 -0.0667899996 1.0224000216
H  2.7401902676 -1.0167901516 -1.7692601681
H  2.8282601833 1.2707301378 -1.8302301168
