19

C  3.0096302032 -1.5465701818 0.1459000111
C  2.4924602509 -0.2525900006 0.7603900433
C  3.2907202244 0.9815201163 0.3117300272
C  2.6358401775 2.2594902515 0.8323200941
C  4.7334003448 0.9430000782 0.8053100109
C  5.7665700912 1.6119201183 -0.0677000061
O  5.0509505272 0.4286600351 1.8774501085
H  2.3927903175 -2.3896400928 0.4740200341
H  4.0411305428 -1.7518800497 0.4469000399
H  2.9713401794 -1.5046900511 -0.9471700788
H  2.5091202259 -0.3446200192 1.8531501293
H  1.4421501160 -0.1299800128 0.4684700370
H  3.3065202236 1.0081501007 -0.7848100662
H  2.5745103359 2.2551600933 1.9262402058
H  1.6219401360 2.3686501980 0.4342100322
H  3.2088601589 3.1460201740 0.5405600667
H  5.5209603310 2.6696300507 -0.1889100075
H  5.7974505424 1.1177301407 -1.0418200493
H  6.7511906624 1.5306800604 0.3995800316
