12

C  1.0807000399 -0.0193700008 -0.0904500037
C  2.3924701214 0.0319900028 0.1355700195
O  3.1421000957 -1.1038401127 0.4021300375
C  4.4980802536 -0.6419300437 0.5895200372
C  4.4575300217 0.8320400715 0.4080100358
C  3.2088501453 1.2025300264 0.1423100084
H  0.5595800281 -0.9703800678 -0.0706700087
H  0.5011100769 0.8725500107 -0.2978600264
H  5.1406602859 -1.1235101223 -0.1538100094
H  4.8282203674 -0.9165601134 1.5960000753
H  5.3116803169 1.4865700006 0.4826000333
H  2.8610002995 2.2076003551 -0.0381700024
