19

C  3.0694701672 -2.4826703072 -1.2802500725
C  2.9708201885 -1.6881101131 -0.0072900006
C  2.4951300621 -2.2338900566 1.1232401133
C  3.3906903267 -0.2342900187 -0.0735900104
C  4.8925604820 -0.0518500060 -0.3267600238
C  5.2778205872 1.4019200802 -0.3331300318
C  5.7910304070 2.0378501415 -1.3938701153
H  2.5240702629 -1.9802101851 -2.0852601528
H  2.6455602646 -3.4864904881 -1.1702702045
H  4.1140203476 -2.5981602669 -1.5840601921
H  2.1779901981 -3.2721803188 1.1646101475
H  2.4054000378 -1.6591900587 2.0405702591
H  3.1191301346 0.2758600116 0.8606600761
H  2.8143801689 0.2620200217 -0.8652901053
H  5.1747307777 -0.5193400383 -1.2777100801
H  5.4678401947 -0.5587000251 0.4575900435
H  5.1342506409 1.9533700943 0.5940100551
H  5.9584703445 1.5301500559 -2.3391301632
H  6.0561604500 3.0895502567 -1.3372000456
