15

C  1.1581100225 0.0253000017 0.1789100170
N  2.5994603634 0.0504900031 0.2709000409
C  3.3172700405 -1.1854000092 -0.0200000014
C  4.6405305862 -0.6568800807 -0.4923800528
C  4.7071700096 0.6788900495 -0.5468100309
C  3.3800301552 1.1197100878 -0.0920900106
N  3.0682001114 2.3652801514 -0.0690800026
H  0.7119000554 0.9088800550 0.6447300911
H  0.7571200132 -0.8522700667 0.6970500350
H  0.8388600945 -0.0160400011 -0.8678100705
H  2.8323302269 -1.7687500715 -0.8096400499
H  3.4299104214 -1.7925301790 0.8828600645
H  5.4561500549 -1.3090701103 -0.7693100572
H  5.5066704750 1.3287000656 -0.8513400555
H  2.1251900196 2.4624803066 0.3075200319
