13

C  1.0291600227 -0.0172600020 0.0495400019
C  2.5239403248 0.0478700027 -0.0052200002
C  3.1827201843 1.2606900930 -0.0691700056
C  4.5574402809 1.2055001259 -0.1324800104
N  5.2561206818 0.0569900014 -0.1408400089
C  4.5228204727 -1.0638201237 -0.0830500051
N  3.1834201813 -1.1303400993 -0.0163900014
H  0.5868500471 0.9681100845 0.2300900221
H  0.7125000358 -0.6818200946 0.8602600694
H  0.6393500566 -0.4034500122 -0.8979000449
H  2.6580903530 2.2069902420 -0.0681300089
H  5.1532602310 2.1120002270 -0.1808800101
H  5.0606503487 -2.0050001144 -0.0918500051
