16

C  1.3118300438 -0.4834800363 -0.3883700371
C  2.1693699360 0.6635000706 -0.8997501135
C  2.4929900169 1.6307501793 0.1948700100
C  3.8195703030 1.6220301390 0.8684700727
N  3.4695703983 2.6509501934 -0.0712900087
C  3.2503602505 3.9517304897 0.3643600345
O  2.7257001400 4.2986307144 1.4143501520
H  1.0888501406 -1.1838800907 -1.1986801624
H  0.3635200262 -0.1127000079 0.0127700008
H  1.8222001791 -1.0300000906 0.4102700353
H  1.6265001297 1.1888101101 -1.6949301958
H  3.0842103958 0.2569200099 -1.3481101990
H  1.6211801767 1.9679400921 0.7450400591
H  4.6042003632 0.9705001116 0.5135600567
H  3.8857002258 1.9375400543 1.9023801088
H  3.6180403233 4.6748600006 -0.3815700114
