17

C  2.3451001644 -0.5092200637 -1.4094600677
C  2.4819500446 0.0245700032 0.0090200007
O  3.1824302673 -0.9318300486 0.8043200970
C  3.2524201870 1.3307901621 0.0259500016
C  2.5224401951 2.5723302364 -0.5017000437
O  2.8561902046 3.3173301220 0.6949500442
C  3.2557702065 2.0924801826 1.3587701321
H  1.7816101313 0.1816000193 -2.0434501171
H  1.8356201649 -1.4784301519 -1.4061201811
H  3.3276202679 -0.6684300303 -1.8675901890
H  1.4866000414 0.1469200104 0.4500800371
H  4.0033903122 -1.1732200384 0.3404200375
H  4.2624602318 1.2327201366 -0.3940800428
H  1.4374800920 2.4890003204 -0.6206800342
H  2.9592101574 3.0230503082 -1.3970900774
H  4.2344903946 2.1887402534 1.8361902237
H  2.5103201866 1.7872201204 2.0994801521
