17

C  2.5694601536 -0.6037999988 0.9571500421
O  2.1222400665 0.7047300339 0.6307800412
C  3.0530903339 1.6558601856 0.2601300180
C  2.4331803322 2.9272704124 -0.0857100040
C  1.1922600269 3.3004302979 0.2564300299
C  4.3823003769 1.4458701611 0.1826400161
C  5.4589204788 2.4231801033 -0.1795400232
H  1.6915301085 -1.2053000927 1.2112001181
H  3.2284202576 -0.5862900615 1.8310800791
H  3.0619502068 -1.0762901306 0.1010700092
H  3.0173203945 3.6267101765 -0.6761800647
H  0.5445200801 2.6625201702 0.8498500586
H  0.8011100292 4.2657399178 -0.0467000045
H  4.7843003273 0.4670600593 0.4289600253
H  5.1070704460 3.4496502876 -0.2990400195
H  5.9411602020 2.1140100956 -1.1118601561
H  6.2190904617 2.4326901436 0.6087200642
