19

C  1.0591801405 -0.0623400025 0.0532200038
C  2.5698003769 0.0583600029 0.0237100031
C  3.1071701050 1.1826500893 0.8904401064
C  4.5102705956 0.6998600364 1.1664201021
C  4.2948603630 -0.7953900695 1.3431500196
C  5.4990601540 -1.6268501282 0.9442100525
O  3.1687703133 -1.1508600712 0.5217500329
H  0.7324500680 -0.9098901153 -0.5597400665
H  0.5823200941 0.8474400640 -0.3242900372
H  0.6987300515 -0.2541100085 1.0690600872
H  2.9100103378 0.1823300123 -1.0119900703
H  2.5505402088 1.2557899952 1.8325201273
H  3.0733201504 2.1560502052 0.3940700293
H  5.1492705345 0.9075701237 0.2998300195
H  4.9654803276 1.1684401035 2.0441401005
H  4.0190505981 -1.0174900293 2.3809802532
H  5.7359204292 -1.4898401499 -0.1174500138
H  5.2875103951 -2.6928303242 1.0804400444
H  6.3787207603 -1.3644700050 1.5383501053
