12

C  0.9231700301 0.0005400000 0.0027900001
C  2.2566001415 0.0004700000 -0.0007500001
C  3.1050601006 1.1722500324 -0.0028300001
C  4.3737301826 0.7273401022 -0.0062600002
C  4.3722500801 -0.7262000442 -0.0064700008
C  3.1053102016 -1.1707501411 -0.0031800002
H  0.3586200476 0.9268500209 0.0044300002
H  0.3591400385 -0.9259901047 0.0041500004
H  2.7750704288 2.1983702183 -0.0018000001
H  5.2658901215 1.3340901136 -0.0085300012
H  5.2641601562 -1.3333600760 -0.0089300005
H  2.7751300335 -2.1964299679 -0.0024500003
