15

N  0.9213400483 0.1561100036 -0.2982900441
C  2.1254000664 0.0839000121 0.3500500023
O  2.3663401604 -0.9023100734 1.0462100506
C  3.0800902843 1.2683401108 0.1110500023
C  2.5432801247 2.7075099945 0.2428700179
N  3.8219401836 3.0962803364 0.8789600730
C  4.0065803528 1.6788001060 1.2754801512
H  0.6551600695 0.9179400802 -0.9047100544
H  0.2762500346 -0.6130900383 -0.1679800153
H  3.6446104050 1.1237200499 -0.8227700591
H  1.6772102118 2.8220002651 0.9056900144
H  2.3301701546 3.2196102142 -0.7001900673
H  4.5268502235 3.4196202755 0.2148400098
H  5.0372705460 1.3181401491 1.2096101046
H  3.6208503246 1.4559501410 2.2776100636
