21

C  1.9594901800 -1.2275201082 -1.5852000713
C  2.9679403305 -0.1877600104 -1.1323001385
C  2.3277502060 1.1840001345 -0.9576801062
O  3.3497002125 2.1052300930 -0.5807600021
C  2.8642003536 3.4145703316 -0.2722500265
C  3.9972403049 4.1515903473 0.4329900444
C  2.4548802376 4.1654405594 -1.5349200964
H  2.4447102547 -2.2017400265 -1.7030202150
H  1.5165501833 -0.9512300491 -2.5482699871
H  1.1509799957 -1.3364300728 -0.8544800878
H  3.7857003212 -0.1222800165 -1.8592702150
H  3.4276404381 -0.5009800196 -0.1878700107
H  1.5573301315 1.1450001001 -0.1783900112
H  1.8694801331 1.5006101131 -1.9001801014
H  2.0145301819 3.3408603668 0.4169400334
H  4.8857402802 4.2114405632 -0.2061400265
H  4.2978501320 3.6128101349 1.3387200832
H  3.6995601654 5.1664805412 0.7158001065
H  3.2525200844 4.1346402168 -2.2861101627
H  2.2163801193 5.2112007141 -1.3160700798
H  1.5695201159 3.7135102749 -1.9931001663
