13

C  1.9104901552 -0.6608300805 -1.1904200315
C  2.0682501793 0.2964000106 -0.2670600116
C  3.2369503975 1.1665400267 -0.1308100075
C  3.5101501942 2.1976902485 -1.1944401264
C  3.0187604427 2.6292803288 0.1559800059
H  1.0120700598 -1.2686800957 -1.2161201239
H  2.6743202209 -0.8516900539 -1.9373401403
H  1.2704200745 0.4364800453 0.4618900418
H  4.0957202911 0.6968500614 0.3389300108
H  2.8270702362 2.2821002007 -2.0324602127
H  4.5447607040 2.3984403610 -1.4480901957
H  3.7207503319 3.1245701313 0.8173200488
H  2.0054402351 3.0089302063 0.2256000191
