14

C  1.1176700592 -0.5508500338 0.4443600178
C  2.5346100330 -0.6768701077 -0.0481600016
O  2.9277400970 -1.7040801048 -0.6013200283
C  3.4128003120 0.5396800637 0.0909100026
C  4.8640103340 0.1932400167 0.2145500183
N  5.5355706215 0.5536700487 1.2603800297
O  6.8571605682 0.1150400117 1.1176700592
H  1.1183199883 -0.2265200168 1.4874202013
H  0.6196500063 -1.5221601725 0.3840200305
H  0.5787600279 0.1692800224 -0.1748300195
H  3.1032302380 1.1116201878 0.9717100859
H  3.2755501270 1.1602301598 -0.8000400066
H  5.3285503387 -0.3613600433 -0.6197100282
H  7.2659106255 0.3981800377 1.9573401213
