16

C  0.9869000316 -0.1189900041 -0.1315900087
C  2.5016901493 -0.0410500020 -0.1010700092
N  3.1295702457 -1.2752500772 -0.1913700104
C  3.1376202106 1.1503700018 -0.0117500005
C  2.4863901138 2.4913601875 0.1848200262
C  4.6253304482 1.2175600529 -0.1255200058
O  5.2595806122 2.2507801056 0.0549000055
H  0.5249300599 0.7749800682 -0.5603100061
H  0.5973800421 -0.2741000354 0.8795700669
H  0.6562000513 -0.9566100836 -0.7566800117
H  2.5152101517 -2.0609900951 0.0213500019
H  3.9978404045 -1.3503900766 0.3333000243
H  1.4366201162 2.4207301140 0.4807200432
H  2.5429003239 3.0786602497 -0.7373400331
H  2.9869701862 3.0507302284 0.9829900265
H  5.1399102211 0.2821300030 -0.3952800333
