12

C  1.0677100420 -0.0475500040 -0.1551200151
C  2.3770000935 0.0196000021 0.0625900030
N  3.1997804642 -1.0470800400 0.2321800143
C  4.5013403893 -0.6484600306 0.4387800395
O  5.4804406166 -1.3432101011 0.6235900521
C  4.4818205833 0.8291600943 0.3917800486
C  3.2078502178 1.1832901239 0.1675399989
H  0.5505500436 -0.9988300800 -0.2137100250
H  0.4717200398 0.8500200510 -0.2816400230
H  2.9270701408 -2.0175201893 0.2151500136
H  5.3521900177 1.4448900223 0.5196000338
H  2.8496301174 2.1973302364 0.0774500072
