15

C  4.1671605110 -1.1358101368 -1.4428601265
C  4.0578002930 -0.4751100540 -0.0774900019
C  3.1451504230 0.7144300342 -0.1153200120
C  3.5349001884 1.9606301785 0.1742600203
O  2.6369001865 3.0280501842 0.1298400164
C  3.1557803154 4.2561006546 0.4282800257
O  4.3065104485 4.5387701988 0.7278200984
H  4.8225302696 -2.0108602047 -1.3875201941
H  4.5851101875 -0.4458700418 -2.1836202145
H  3.1878602505 -1.4698001146 -1.8019801378
H  5.0591306686 -0.1909700185 0.2670800090
H  3.6636602879 -1.1978300810 0.6461200118
H  2.1073200703 0.5332700610 -0.3853100538
H  4.5477004051 2.2212800980 0.4571400583
H  2.3429901600 4.9956202507 0.3558500409
