19

C  0.9250701070 -0.1398300081 0.3055400252
C  2.4036800861 -0.0508500040 0.6592200994
C  2.9951903820 1.3652200699 0.4970800281
C  2.3318803310 2.3627803326 1.4524301291
C  4.5119404793 1.3521200418 0.7513300180
C  5.3191103935 0.7201800346 -0.3609800339
O  4.8687305450 0.3741900325 -1.4471100569
H  0.5936900377 -1.1825901270 0.3435800076
H  0.7391100526 0.2378400117 -0.7044500113
H  0.3077200353 0.4258600473 1.0088701248
H  2.9448602200 -0.7532300353 0.0144200008
H  2.5453002453 -0.4009500444 1.6893801689
H  2.8079102039 1.7081902027 -0.5285900235
H  2.4253699780 2.0366902351 2.4940001965
H  1.2682900429 2.4857201576 1.2265200615
H  2.7940802574 3.3521301746 1.3651301861
H  4.7435207367 0.8168600798 1.6791901588
H  4.8920807838 2.3752601147 0.8551200628
H  6.3970403671 0.6130599976 -0.1460200101
