13

N  2.7563500404 -1.1266800165 0.1478500068
C  2.1897902489 0.0330900028 0.0606600046
N  2.9446403980 1.2095900774 0.0347600020
C  2.4220502377 2.4845101833 -0.0563500039
C  3.4596602917 3.3914003372 -0.0548700057
C  4.6611003876 2.6536202431 0.0401300006
C  4.3187603951 1.3216301203 0.0935400054
H  2.0409801006 -1.8622100353 0.1525900215
H  1.0922900438 0.1280900091 0.0040800003
H  1.3528801203 2.6388003826 -0.1146900132
H  3.3608601093 4.4675307274 -0.1156800091
H  5.6689105034 3.0474002361 0.0669900030
H  4.9294705391 0.4302200377 0.1687800139
