16

C  0.9490500689 -0.0100400001 0.0619700029
C  2.4637002945 0.0176300015 -0.0029500001
N  3.1959002018 0.9956101179 0.8492200375
C  2.4213001728 1.5084301233 1.9807001352
C  4.1617703438 -0.0198500026 1.3389700651
C  3.2190704346 -1.0832000971 0.7541300654
O  3.1227903366 -2.2900300026 0.8462800980
H  0.5625100136 -0.8103900552 -0.5785700679
H  0.5248000026 0.9310800433 -0.3028500080
H  0.5672900677 -0.1981300116 1.0700500011
H  2.7926802635 0.0693500042 -1.0502800941
H  1.6147501469 2.1605103016 1.6293600798
H  3.0665602684 2.1252100468 2.6166801453
H  1.9891102314 0.7230300903 2.6119003296
H  5.1330304146 0.0134100011 0.8360500336
H  4.3112902641 -0.0861000046 2.4201402664
