12

N  1.7613000870 -0.6235200167 1.0844100714
C  2.6410503387 -0.3130300343 0.0784500092
O  2.9113001823 -1.1408200264 -0.7861000299
C  3.2128703594 1.1242500544 0.1401299983
O  2.9203500748 1.7431101799 1.3963301182
C  4.6685004234 1.1436600685 -0.0753800049
C  5.8567605019 1.1656801701 -0.2455500215
H  1.3993101120 0.1110700071 1.6819301844
H  1.2916600704 -1.5179500580 1.0492300987
H  2.7013502121 1.7050400972 -0.6344600320
H  3.5339202881 1.3398801088 2.0362000465
H  6.9111504555 1.1804200411 -0.4049900174
