17

O  2.5458803177 -0.3890100420 -1.5508401394
C  2.4065101147 0.0632100031 -0.2065400183
C  3.2684602737 1.3056100607 0.0159000009
C  3.3059504032 1.7245900631 1.4931801558
C  3.3405003548 3.2534003258 1.5020201206
C  2.7661502361 3.6021902561 0.1703700125
C  2.7227001190 2.5414602757 -0.6423200369
H  1.9553302526 -1.1543600559 -1.6551201344
H  2.7300500870 -0.7481200695 0.4540300369
H  1.3468000889 0.2677000165 -0.0176900011
H  4.2817902565 1.1317399740 -0.3673700392
H  4.1696701050 1.2976400852 2.0146501064
H  2.4083001614 1.3774400949 2.0228803158
H  4.3630704880 3.6341702938 1.5875400305
H  2.7405402660 3.6558902264 2.3230502605
H  2.4645702839 4.6026802063 -0.1089100093
H  2.3883502483 2.5627102852 -1.6717600822
