17

C  0.6168300509 0.3431000113 -0.7713800669
C  0.0330700018 1.2657500505 0.2656800151
N  0.1714700162 -0.1651800126 0.5216400623
C  1.2874301672 -0.4750200212 1.4253700972
C  0.7498300672 -0.7151300907 2.8539102077
N  1.6087400913 -1.9309000969 2.9266202450
C  1.5379600525 -1.9988000393 1.4387001991
H  -0.0015900001 0.0746100023 -1.6198301315
H  1.6800901890 0.3930400312 -0.9731301069
H  -0.9794400930 1.6194801331 0.1190100089
H  0.6924500465 1.9516000748 0.7813800573
H  2.1941003799 0.1413900107 1.3714600801
H  -0.3195800185 -0.9443100691 2.9426703453
H  0.9996400476 0.0590800047 3.5856802464
H  2.5481803417 -1.7365001440 3.2730503082
H  2.4641401768 -2.3270699978 0.9570500851
H  0.7173600793 -2.6338901520 1.0814501047
