16

C  1.7012301683 -0.3713000417 1.5207701921
N  3.0658502579 0.0988300070 1.3377400637
C  3.1184000969 1.4400200844 0.7377900481
C  2.9185001850 2.4986102581 1.7840400934
C  2.1474602222 3.5833401680 1.6320201159
C  4.5014605522 1.6583800316 0.1107200086
O  5.2507605553 0.7515900731 -0.2513000071
H  1.7206501961 -1.3868701458 1.9262300730
H  1.1521700621 -0.3995900452 0.5746600628
H  1.1548100710 0.2534100115 2.2342503071
H  3.5730204582 -0.5413600802 0.7190900445
H  2.3984701633 1.5406801701 -0.0844300091
H  3.4379203320 2.3504703045 2.7299103737
H  1.6026201248 3.7801401615 0.7143200040
H  2.0430300236 4.3048100471 2.4393303394
H  4.7540307045 2.7084300518 -0.1208500117
