12

C  0.9413300753 -0.0335600004 0.0065100007
C  2.4346601963 -0.0021200003 0.0091800010
C  3.1390202045 1.1379899979 0.0000000000
C  4.5450205803 1.1379899979 0.0000000000
C  5.7351803780 1.1379899979 0.0000000000
C  7.2675204277 1.1362701654 0.0000100000
N  8.4295206070 1.1358799934 0.0000100000
H  0.5904999971 -1.0700900555 -0.0239200015
H  0.5401099920 0.4804000556 -0.8724500537
H  0.5400900245 0.4292000234 0.9133400917
H  2.9445803165 -0.9632700682 0.0178600010
H  2.6285002232 2.0974900723 -0.0081600007
