17

C  0.9110201001 -0.4119700193 0.0915700048
C  2.3298501968 0.0179900005 -0.2658200264
C  2.8316602707 -0.7743600607 -1.4750300646
O  4.2068305016 -0.4960400462 -1.7172801495
C  2.3852603436 1.5181200504 -0.5485799909
C  1.9761701822 2.4526603222 0.5624900460
O  2.7858903408 1.9641801119 -1.6265500784
H  0.5751300454 0.0601700060 1.0208600760
H  0.8537800312 -1.4961301088 0.2363300174
H  0.2015300244 -0.1329900026 -0.6958100796
H  3.0028800964 -0.1665300131 0.5804600716
H  2.2639603615 -0.5474800467 -2.3842601776
H  2.7489502430 -1.8496801853 -1.2874801159
H  4.2383503914 0.4243700206 -2.0515601635
H  0.8957400322 2.4067201614 0.7104400396
H  2.2513301373 3.4769904613 0.2968299985
H  2.4991700649 2.1819000244 1.4824801683
