13

O  2.7177302837 -0.7206701040 -1.0458600521
C  2.3992502689 -0.0895800069 0.1899400204
C  2.8379302025 1.3238000870 0.0872900113
N  2.0795001984 2.4014902115 0.1085700095
C  2.9377601147 3.4617302418 -0.0296300016
C  4.2347903252 3.0257501602 -0.1501700133
N  4.1585202217 1.6627601385 -0.0798300058
H  2.1853702068 -0.2570300102 -1.7189500332
H  2.9251501560 -0.6093900204 0.9956000447
H  1.3219100237 -0.1668500006 0.3632700443
H  2.5751302242 4.4814205170 -0.0396100022
H  5.1719403267 3.5476703644 -0.2814900279
H  4.9226202965 1.0045300722 -0.1610000134
