19

C  0.6881200075 2.8243703842 0.3346600235
C  2.0320901871 2.1160001755 0.3944000304
N  3.1155202389 3.0616002083 0.1218500063
N  4.3586301804 2.5276000500 0.1146800071
C  5.3427305222 3.3362002373 -0.1551100016
C  5.1965999603 4.8080906868 -0.4614800215
C  6.7406506538 2.7694802284 -0.1491400152
H  -0.1195600107 2.1176803112 0.5489200354
H  0.5102400184 3.2502403259 -0.6578300595
H  0.6320700645 3.6328902245 1.0708800554
H  2.0479900837 1.3062901497 -0.3441900313
H  2.1665003300 1.6702002287 1.3870401382
H  3.0429103374 3.8447802067 0.7740600705
H  4.5004401207 4.9513406754 -1.2925900221
H  6.1637105942 5.2345504761 -0.7420300841
H  4.8290004730 5.3331899643 0.4240800440
H  6.7234306335 1.6952401400 0.0512800030
H  7.3278903961 3.2695400715 0.6257500052
H  7.2058606148 2.9437100887 -1.1231201887
