16

C  1.2512900829 -0.1920500100 -0.6979800463
C  2.5954201221 -0.0935100093 0.0018100002
N  3.1627001762 1.2264801264 -0.2098800093
C  4.4985103607 1.5314600468 -0.1313900054
C  5.0269703865 2.7583000660 -0.1156300083
C  6.4892902374 2.9335503578 -0.0527900010
O  6.9996304512 4.0469503403 -0.0403899997
H  0.8209600449 -1.1886900663 -0.5608400702
H  1.3552700281 -0.0078800004 -1.7726601362
H  0.5451200604 0.5441200733 -0.2997100353
H  3.2646801472 -0.8662200570 -0.3934600353
H  2.4717199802 -0.2717500031 1.0754301548
H  2.5238900185 2.0099101067 -0.0839000121
H  5.1348705292 0.6477000713 -0.0964200050
H  4.4311904907 3.6609702110 -0.1592700183
H  7.0933704376 2.0115501881 -0.0188900027
