18

C  0.8968200684 0.3103600144 0.4538800120
C  2.3605902195 0.0813100114 0.2252400219
C  2.8915700912 -1.1541200876 0.2228300273
C  3.2699601650 1.2365201712 -0.0047400007
C  2.6844000816 2.6548800468 -0.1952500194
C  3.8432703018 3.0923802853 0.7184400558
N  3.8342103958 1.7230001688 1.2805100679
H  0.7384800911 0.9274500608 1.3437900543
H  0.3548900187 -0.6291500330 0.6062900424
H  0.4474800527 0.8111700416 -0.4093100429
H  2.2777302265 -2.0338702202 0.3904900253
H  3.9530003071 -1.3204001188 0.0654600039
H  4.0427403450 1.0146400928 -0.7564700246
H  1.6982800961 2.8513300419 0.2398000211
H  2.7081902027 3.0508503914 -1.2140501738
H  4.7673501968 3.3462603092 0.1858800203
H  3.6110701561 3.8851802349 1.4340001345
H  4.7482805252 1.3392502069 1.5076500177
