17

C  1.4359600544 -0.8800800443 0.7358101010
C  2.2266800404 -1.0260400772 -0.5592300296
C  2.5397601128 -2.4917201996 -0.8346100450
O  1.3995400667 -0.4996600151 -1.6191900969
C  1.9179100990 -0.0166300014 -2.7630901337
N  0.9662700891 0.5184400678 -3.5485603809
N  3.1485502720 -0.0668800026 -3.1163501740
H  1.1923800707 0.1726700068 0.9158501029
H  2.0018501282 -1.2583500147 1.5925301313
H  0.4826900363 -1.4173002243 0.6783700585
H  3.1467702389 -0.4382400513 -0.4675000608
H  1.6183600426 -3.0733602047 -0.9498500228
H  3.1304802895 -2.9285800457 -0.0235400014
H  3.0991601944 -2.6075503826 -1.7680702209
H  0.0410000049 0.1419600099 -3.3975002766
H  1.2507101297 0.5877500772 -4.5167703629
H  3.7217104435 -0.5172500610 -2.4072501659
