11

C  0.9808200598 -0.0211400017 -0.0065500005
C  2.4560801983 0.0238000024 0.0001100000
C  3.2995102406 1.1113700867 0.0008900000
O  4.5824103355 0.6540000439 0.0078800004
C  4.4432306290 -0.6998000741 0.0109900013
N  3.2026302814 -1.1325300932 0.0065400004
H  0.5515200496 0.9855101109 0.0032600001
H  0.6126800776 -0.5576300621 0.8732700348
H  0.6202901006 -0.5373800397 -0.9015001059
H  3.1687202454 2.1831402779 -0.0026400003
H  5.3543000221 -1.2809300423 0.0167300012
