15

C  0.9074400663 0.0110600004 -0.3665600121
C  1.8994600773 0.2964900136 0.4850900471
C  2.9106602669 1.3233300447 0.1321800202
C  2.4973602295 2.7974703312 0.3455800116
N  3.8653304577 3.0718500614 0.8526600599
C  3.9766402245 1.6351901293 1.2080900669
H  0.1632300168 -0.7394300103 -0.1167600155
H  0.8082900643 0.5120500326 -1.3249000311
H  1.9739600420 -0.2205800116 1.4374500513
H  3.3611502647 1.1416400671 -0.8544600606
H  1.7180101871 2.9676403999 1.0986800194
H  2.2303001881 3.3483803272 -0.5614300370
H  4.5135803223 3.3508303165 0.1153100058
H  4.9651803970 1.1994400024 1.0337301493
H  3.6835701466 1.4276100397 2.2447102070
