19

C  1.0716700554 0.0341400020 0.2716700137
C  2.4311702251 0.2286900282 -0.4121400416
C  2.6565201283 -0.6036000252 -1.6580400467
C  1.7919601202 -1.4314800501 -2.2607901096
C  2.6998403072 1.7037501335 -0.6955900192
C  1.7523300648 2.4297502041 -1.6156001091
C  3.7498703003 2.3414602280 -0.1489200145
H  0.9920000434 0.6620100141 1.1669601202
H  0.9423200488 -1.0068501234 0.5903200507
H  0.2342300266 0.2870000303 -0.3883900344
H  3.1801202297 -0.1240000054 0.3115400076
H  3.6512901783 -0.5105800629 -2.0943601131
H  0.7837100625 -1.5914601088 -1.8949601650
H  2.0852301121 -1.9768501520 -3.1530504227
H  0.7492600679 2.4735100269 -1.1820200682
H  1.6934401989 1.9310101271 -2.5875401497
H  2.0733201504 3.4610004425 -1.7985601425
H  4.4442901611 1.8332002163 0.5132700205
H  3.9465401173 3.3910503387 -0.3496300280
