17

C  1.4142001867 5.7661404610 -0.7420000434
C  2.7083401680 5.0177001953 -0.7143000364
C  2.7811002731 3.6786303520 -0.7046100497
O  3.8844201565 2.8737101555 -0.6910500526
C  5.1633300781 3.5075001717 -0.6874600649
C  6.2027401924 2.4281301498 -0.7251800895
C  7.1644906998 2.3281302452 -1.6526700258
H  1.3472599983 6.4260606766 0.1279500127
H  0.5481800437 5.0971603394 -0.7308700681
H  1.3600701094 6.3803000450 -1.6455401182
H  3.6032302380 5.6312203407 -0.7068300843
H  1.8952101469 3.0500104427 -0.7121100426
H  5.2889604568 4.0883803368 0.2335800231
H  5.2617506981 4.1689004898 -1.5574700832
H  6.1472506523 1.6830101013 0.0639500022
H  7.2534608841 3.0440502167 -2.4638800621
H  7.8814806938 1.5130200386 -1.6222600937
