21

C  3.3217802048 -1.3722701073 0.6094000340
C  2.5851902962 -0.0920300111 1.0196701288
C  2.3532202244 -0.0964900032 2.5343899727
C  3.3068301678 1.1772400141 0.4854400456
C  2.4820201397 2.4467000961 0.7223500609
C  4.6953506470 1.3723500967 1.0528700352
C  5.8140401840 1.3681499958 0.3170500100
H  3.4766302109 -1.4030201435 -0.4745000303
H  2.7377402782 -2.2575201988 0.8850200772
H  4.2988204956 -1.4546101093 1.0974900723
H  1.5962400436 -0.1285400093 0.5430600047
H  3.2955501080 -0.1006300077 3.0919504166
H  1.7922301292 -0.9898201227 2.8317601681
H  1.7683700323 0.7714800239 2.8539903164
H  3.3874101639 1.0604500771 -0.6050900817
H  2.4126601219 2.7027101517 1.7850902081
H  1.4651200771 2.3284702301 0.3328000307
H  2.9343400002 3.3029901981 0.2087900192
H  4.7793202400 1.5378100872 2.1259901524
H  5.7911605835 1.2153700590 -0.7574100494
H  6.7841305733 1.5199701786 0.7808600664
