13

C  2.8472902775 -1.0407501459 0.3930400312
N  2.2540400028 0.0913300067 0.2451100200
N  3.0221502781 1.2071501017 0.1485000104
C  2.4599301815 2.4537804127 -0.0055000004
C  3.4542002678 3.4008901119 -0.0761700049
C  4.6815004349 2.7148902416 0.0377600007
C  4.3894405365 1.3731402159 0.1739500165
H  2.2294902802 -1.9502501488 0.4716900289
H  3.9344303608 -1.2050400972 0.4518300593
H  1.3835500479 2.5490701199 -0.0506500043
H  3.3074800968 4.4667401314 -0.1966800243
H  5.6736207008 3.1472501755 0.0224800017
H  5.0645503998 0.5400200486 0.2853000164
