13

C  0.9727200866 -0.0651500076 0.0006200001
C  2.4868800640 0.0703800097 0.0166300014
C  2.9235103130 1.4869301319 0.0068400004
N  3.1708402634 2.1746401787 1.1305900812
O  3.5412201881 3.4353902340 0.6532900333
C  3.4748804569 3.3638002872 -0.7005000114
N  3.1016502380 2.1934800148 -1.1558700800
H  0.6854500175 -1.1213301420 0.0011900001
H  0.5431600809 0.4043900073 -0.8909800649
H  0.5237200260 0.4106200337 0.8791900873
H  2.9046003819 -0.4421000183 -0.8578500748
H  2.8881204128 -0.4386400282 0.9009500742
H  3.7303802967 4.2571401596 -1.2493400574
