18

C  1.3727101088 -0.6056700349 0.4918000400
C  2.8738503456 -0.5463700294 0.3591100276
C  3.6200902462 -1.6208500862 0.6723300815
C  3.4132001400 0.7719900608 -0.1570800245
O  2.9842503071 1.8067001104 0.7355300784
C  4.9496703148 0.8946200609 -0.3169300258
N  5.3226604462 2.2692000866 -0.7041800618
H  0.8973000646 -0.3723700047 -0.4667800069
H  1.0214900970 0.1121900082 1.2400101423
H  1.0238400698 -1.5978201628 0.7985400558
H  3.1614103317 -2.5364902020 1.0361500978
H  4.7013006210 -1.6301001310 0.5932800174
H  2.9490003586 0.9762101173 -1.1304401159
H  3.6179802418 2.5367002487 0.5784300566
H  5.3235006332 0.1860300153 -1.0635501146
H  5.4434404373 0.6871600151 0.6391900778
H  4.9721107483 2.4563202858 -1.6450601816
H  6.3399505615 2.3229300976 -0.7732100487
