12

N  2.9310700893 -1.5488001108 0.7021400332
C  2.3848001957 -0.5259300470 0.1499000043
N  2.9837303162 0.6714500785 -0.0658500046
C  4.4074501991 0.8481701016 0.1155500114
C  4.7641201019 2.2454502583 -0.1708500087
C  5.0543208122 3.3873302937 -0.4062600434
H  2.2518103123 -2.3162403107 0.7477700114
H  1.3378801346 -0.5544400215 -0.1990900189
H  2.5563802719 1.2946200371 -0.7399600744
H  4.9563503265 0.1826500148 -0.5601500273
H  4.6926007271 0.5979800820 1.1434401274
H  5.3131303787 4.4008502960 -0.6105200648
