15

C  1.0522000790 -0.0947200134 0.0240400024
C  2.5714600086 -0.0455600023 0.0557200052
C  3.0870101452 1.3873400688 -0.0403000005
C  4.6088104248 1.4394301176 -0.0082600005
O  5.0471005440 2.7891201973 -0.0897100121
H  0.7049700618 -1.1303701401 0.0931200087
H  0.6651900411 0.3319300413 -0.9068200588
H  0.6241000295 0.4638000429 0.8625301123
H  2.9677300453 -0.6402800679 -0.7755700946
H  2.9268102646 -0.5081600547 0.9839000702
H  2.6863801479 1.9921401739 0.7827800512
H  2.7252101898 1.8591201305 -0.9623000622
H  5.0450606346 0.8819800615 -0.8434900641
H  4.9936103821 1.0161100626 0.9249001145
H  4.7218003273 3.1520204544 -0.9312400222
