11

O  1.1365300417 0.0240800008 -0.4625200331
C  2.3123302460 -0.0150100011 -0.1417700201
C  3.1400904655 -1.2500201464 0.0367700048
C  4.4483504295 -0.6417900324 0.4375200272
O  5.4702200890 -1.2475301027 0.7127700448
C  4.3557004929 0.8324500322 0.4613000453
C  3.1143803596 1.1966301203 0.1247100085
H  3.2402803898 -1.7833001614 -0.9098700881
H  2.7404303551 -1.8672201633 0.8425500393
H  5.1886105537 1.4652202129 0.7165500522
H  2.7116203308 2.1919400692 0.0449400060
