10

C  0.9745000601 -0.0670900047 -0.0015300001
C  2.1729602814 0.0037800004 0.0005600000
C  3.5821704865 0.0865100026 0.0030100001
C  4.4642400742 1.1365901232 0.0007600000
N  5.7522201538 0.6565500498 0.0051200003
C  5.5890202522 -0.6491700411 0.0097500002
O  4.2943201065 -1.0748600960 0.0088300006
H  -0.0883600041 -0.1353700161 -0.0033600002
H  4.2490901947 2.1955001354 -0.0036800003
H  6.3497705460 -1.4172500372 0.0141700013
