15

O  1.5494501591 -0.1206500083 1.0654500723
C  2.4236102104 0.0664700046 0.2274900079
N  2.9089002609 1.2962901592 -0.1597300172
C  2.5584802628 2.5371601582 0.5022100210
C  3.3210601807 3.5727202892 -0.2926900089
C  4.5311403275 2.7930903435 -0.7881100774
N  4.0340199471 1.4213200808 -1.0083700418
H  2.8988602161 -0.7654300928 -0.3193700314
H  2.8963801861 2.4814801216 1.5429100990
H  1.4753301144 2.6883902550 0.4850700498
H  2.7189002037 3.9050602913 -1.1473901272
H  3.5881204605 4.4499502182 0.3028400242
H  4.9575104713 3.2212700844 -1.7001200914
H  5.3123602867 2.7708601952 -0.0197400022
H  3.6886703968 1.3562000990 -1.9703401327
