16

C  0.6037300825 0.3584000468 -0.7950600982
C  0.0674900115 1.2995700836 0.2507600188
N  0.1833400130 -0.1318300068 0.5143400431
C  1.3182101250 -0.4581000507 1.3900901079
C  0.8157100677 -0.6827300191 2.8231804371
O  1.4189400673 -2.0072600842 2.8542902470
C  1.5384200811 -1.9771400690 1.4035900831
H  -0.0429900028 0.0983200073 -1.6245601177
H  1.6614202261 0.3872600198 -1.0263900757
H  -0.9412701130 1.6747001410 0.1276100129
H  0.7552000284 1.9773601294 0.7412000895
H  2.2324101925 0.1404900104 1.3099600077
H  -0.2663600147 -0.7450500727 2.9819602966
H  1.2587901354 -0.0231100023 3.5749502182
H  2.5306401253 -2.3013801575 1.0766601562
H  0.7742700577 -2.6090402603 0.9380200505
