21

C  2.2096302509 0.7565301061 0.1002600119
C  3.4363803864 1.4700201750 0.6381100416
O  4.5514202118 1.0881100893 -0.1602700055
C  5.8263802528 1.6510901451 0.1811400205
C  6.2700204849 1.2305901051 1.5867100954
C  6.8086404800 1.0645201206 -0.8427900672
C  5.8242001534 3.1776502132 0.0438200049
H  1.3212699890 1.0165500641 0.6823000908
H  2.3495202065 -0.3286100030 0.1339900047
H  2.0369400978 1.0238300562 -0.9471100569
H  3.5917501450 1.1781101227 1.6805101633
H  3.2754302025 2.5503001213 0.5816200376
H  5.6536302567 1.6998301744 2.3615801334
H  7.3104906082 1.5149401426 1.7804800272
H  6.1745705605 0.1465800107 1.7184801102
H  6.5069503784 1.3233801126 -1.8644402027
H  6.8176608086 -0.0304900017 -0.7908300757
H  7.8300104141 1.4262400866 -0.6822000742
H  5.4100503922 3.4821503162 -0.9242900610
H  6.8354802132 3.5898203850 0.1354800165
H  5.2074604034 3.6511104107 0.8158500195
