11

C  1.0018000603 -0.0637800023 0.0299900025
O  2.4210903645 -0.0082200002 0.0288900025
C  2.8940103054 1.3385500908 0.0000000000
C  4.3380103111 1.3385500908 0.0000000000
C  5.5281705856 1.3385500908 0.0000000000
H  0.6999900937 -1.1133600473 0.0527100042
H  0.5993100405 0.3960300386 -0.8767200708
H  0.5993000865 0.4346600473 0.9165800810
H  2.5144302845 1.8743401766 0.8774100542
H  2.5144302845 1.8361902237 -0.8995900750
H  6.5935006142 1.3273800611 0.0002400000
