20

C  0.9469401240 -0.0207500011 0.2282000184
C  2.4438900948 -0.0074700010 -0.0777000040
C  2.6993100643 0.0180400014 -1.5842201710
C  3.2289102077 1.0715900660 0.7219700217
C  4.1292204857 -0.0220800005 1.3195400238
N  5.4273705482 0.0008900000 0.6468800306
C  3.2416903973 -1.1041201353 0.6833100319
H  0.7557300925 -0.0392100029 1.3067501783
H  0.4673300385 -0.9028100371 -0.2094000131
H  0.4574400485 0.8694400787 -0.1809100211
H  3.7666401863 0.0235200021 -1.8215101957
H  2.2559401989 0.9107100368 -2.0382602215
H  2.2592401505 -0.8608601093 -2.0673902035
H  2.6305000782 1.5863602161 1.4836100340
H  3.7209601402 1.8445800543 0.1208200082
H  4.1874504089 -0.0389600024 2.4111201763
H  5.3904705048 0.0866300091 -0.3675800264
H  6.0005507469 -0.8200700283 0.8376500607
H  3.7435503006 -1.8491501808 0.0558300056
H  2.6498501301 -1.6524300575 1.4264000654
