22

C  1.6441801786 -0.4839300513 0.4774500430
N  3.0155701637 -0.1022400036 0.7899100780
C  3.3707501888 1.2489100695 0.3231400251
C  2.5126302242 2.3283002377 0.9980500937
C  4.8863000870 1.5422600508 0.5388200283
C  5.3359603882 1.4147701263 1.9993301630
C  5.7761306763 0.6657900214 -0.3519600332
H  1.4940800667 -1.5337600708 0.7477700114
H  1.4273800850 -0.3799100220 -0.5900900364
H  0.9203700423 0.0971100032 1.0550000668
H  3.6434702873 -0.7812500596 0.3612600267
H  3.1830303669 1.3069601059 -0.7578001022
H  2.5146901608 2.2300500870 2.0888700485
H  1.4722402096 2.2779600620 0.6593800783
H  2.8790302277 3.3299701214 0.7477200627
H  5.0668005943 2.5818600655 0.2323400080
H  5.2206807137 0.3918200433 2.3709802628
H  4.7678403854 2.0827100277 2.6528701782
H  6.3928508759 1.6852000952 2.0987601280
H  5.7422304153 -0.3876800239 -0.0581300035
H  6.8198904991 0.9918600917 -0.2864900231
H  5.4718704224 0.7410100698 -1.4005800486
