13

N  1.0288300514 0.0162800010 0.0000000000
C  2.3723802567 -0.0178000014 0.0000000000
N  3.1366703510 -1.0423201323 0.0000000000
C  3.0995004177 1.2176301479 0.0000000000
C  3.6945803165 2.2483401299 0.0000000000
C  4.3975801468 3.4659702778 0.0000000000
C  3.7708802223 4.6469001770 -0.0000000000
H  0.5397800207 0.9020900726 -0.0000000000
H  0.4792200625 -0.8290700316 0.0000000000
H  2.5650403500 -1.8872700930 0.0000000000
H  5.4832305908 3.4272701740 -0.0000000000
H  2.6878900528 4.7219905853 -0.0000000000
H  4.3388705254 5.5712203979 0.0000000000
