18

C  0.9724800587 0.0526000038 0.0049800002
C  2.4929003716 -0.0126500009 0.0234700013
C  3.1063001156 1.0910201073 0.8853600621
N  4.4729804993 0.6258400083 1.1748300791
C  4.3195805550 -0.8176800609 1.4280700684
C  3.1067202091 -1.2375400066 0.6481500268
C  2.6513700485 -2.4953403473 0.5722000599
H  0.5534800291 -0.7134100795 -0.6559200883
H  0.6341500878 1.0278301239 -0.3613200188
H  0.5498200655 -0.0972400010 1.0047200918
H  2.8736703396 0.0806400031 -1.0024000406
H  2.5590500832 1.2306201458 1.8266301155
H  3.1244702339 2.0533800125 0.3631600142
H  5.0321502686 0.7284000516 0.3277000189
H  5.2189602852 -1.3543400764 1.1096900702
H  4.1635904312 -0.9831101298 2.4997000694
H  1.7622002363 -2.7479302883 0.0044300002
H  3.1630303860 -3.3085403442 1.0786200762
