17

C  1.1884101629 -0.8892600536 0.1534200162
C  2.5341601372 -0.2625700235 -0.2031600177
C  3.2060902119 -1.0227301121 -1.3409801722
C  2.3592102528 1.1998001337 -0.5997200012
O  1.3408801556 1.6198800802 -1.1453000307
C  3.5124001503 2.1082103252 -0.3210700452
C  3.4575104713 3.4075100422 -0.6378600597
H  0.6948300600 -0.3217300177 0.9500300884
H  1.3200800419 -1.9187800884 0.5024200082
H  0.5115700364 -0.9077100754 -0.7078700662
H  3.1693904400 -0.3065000176 0.6898600459
H  2.6083602905 -0.9754101038 -2.2580502033
H  3.3457202911 -2.0762300491 -1.0780200958
H  4.1898002625 -0.5989100337 -1.5689901114
H  4.3909301758 1.6786900759 0.1443300098
H  2.5774302483 3.8414802551 -1.1059700251
H  4.2941498756 4.0672802925 -0.4356100261
