12

O  1.1938201189 -0.0106100012 0.2772100270
N  2.6008801460 -0.0009800000 0.4058500230
C  3.2623102665 -1.2044401169 -0.0298000015
C  4.5641503334 -0.6468700171 -0.5047500134
C  4.5758004189 0.6917800307 -0.5283500552
C  3.2391502857 1.1230801344 -0.0907600075
O  2.7654399872 2.2340903282 -0.2527300119
H  1.0012900829 0.9251200557 0.0550000034
H  2.7081301212 -1.6826001406 -0.8428900838
H  3.3738102913 -1.8815701008 0.8198400140
H  5.3931002617 -1.2693901062 -0.8095600605
H  5.3483705521 1.3642101288 -0.8544700742
