17

C  1.1534900665 0.3270300031 -0.6675300598
C  2.4917502403 -0.1189800054 -0.1346199960
C  2.7264702320 -1.6084201336 -0.0199300013
N  3.3541800976 0.7992200851 0.1908600181
N  4.5266604424 0.3313200176 0.6593600512
C  5.5577607155 1.2840400934 0.2458300292
C  5.0101404190 1.3061500788 1.6381001472
H  1.0949500799 1.4179700613 -0.7057900429
H  0.3615100086 -0.0511800013 -0.0157600008
H  1.0143800974 -0.0743800029 -1.6747900248
H  1.8448301554 -2.1582300663 -0.3609000444
H  2.9197402000 -1.8746402264 1.0229800940
H  3.5784003735 -1.8992800713 -0.6408000588
H  5.2797803879 2.0773100853 -0.4371800423
H  6.5419807434 0.8630300760 0.0894000083
H  5.6196503639 0.9003400207 2.4344303608
H  4.3500499725 2.1148400307 1.9265902042
