14

C  8.0226812363 1.1661100388 -2.6415400505
O  7.7096505165 0.3768900335 -1.4965901375
N  6.4771008492 0.8271000385 -0.9805601239
C  5.4322299957 -0.0411500037 -0.8649700880
O  4.4720106125 0.2218500078 -0.1447800100
C  5.4878506660 -1.2808301449 -1.6852201223
C  4.4564499855 -2.1341903210 -1.7010201216
H  7.2578506470 1.0400301218 -3.4150600433
H  8.9829711914 0.8276801109 -3.0399403572
H  8.1105508804 2.2211899757 -2.3642201424
H  6.5307407379 1.5298401117 -0.2517700195
H  6.3797602654 -1.4809700251 -2.2630300522
H  3.5542001724 -1.9481501579 -1.1238200665
H  4.4941101074 -3.0415501595 -2.2944099903
