19

C  0.9314500690 0.0055600004 0.0702400059
C  2.4457702637 0.0274100024 0.0193300005
C  3.1543800831 1.0499300957 0.9415900707
C  4.2333002090 -0.0280100033 1.2245200872
C  5.4902906418 0.0134700006 0.3654100299
O  6.3158602715 1.0931801796 0.7876900434
C  3.1807901859 -1.0859100819 0.8056700230
H  0.5405300260 -0.8503900170 -0.4885100424
H  0.5188700557 0.9156700373 -0.3759900331
H  0.5626800656 -0.0644700006 1.0984101295
H  2.7963399887 0.0979100093 -1.0205700397
H  2.5792403221 1.3274400234 1.8329801559
H  3.4940903187 1.9652601480 0.4492500126
H  4.5022706985 -0.1000200063 2.2855901718
H  5.2693605423 0.1377100050 -0.6989200711
H  6.0652604103 -0.9097500443 0.4874900281
H  5.8354806900 1.9182101488 0.6058200598
H  3.5463104248 -1.9226901531 0.2036000192
H  2.6134300232 -1.4886300564 1.6531801224
