20

C  1.1105901003 2.2525701523 -0.2880600095
N  2.5518400669 2.2117800713 -0.4939900339
C  3.1726500988 1.1870801449 0.3472000360
C  4.6741700172 1.1493000984 0.0944000036
C  5.5260906219 2.3169403076 0.6675500274
C  6.6159505844 1.2722501755 0.9798100591
C  5.4920506477 0.2176800221 1.0285900831
H  0.6703500152 3.0154101849 -0.9374300241
H  0.8601700664 2.5071301460 0.7483300567
H  0.6456100941 1.2946901321 -0.5428900719
H  2.9455001354 3.1236002445 -0.2626900077
H  2.7483201027 0.2050200105 0.1068200096
H  2.9692802429 1.3896100521 1.4057701826
H  4.9008002281 0.9525100589 -0.9647101164
H  5.1042799950 2.7910201550 1.5617301464
H  5.8079204559 3.0940003395 -0.0476600043
H  7.3288602829 1.1196900606 0.1616000086
H  7.1674304008 1.4235200882 1.9109301567
H  5.7455101013 -0.7628100514 0.6175000668
H  5.0618104935 0.0830700025 2.0287501812
