13

C  0.5033800006 0.6508000493 1.4081101418
C  1.3413701057 0.0699100047 0.5395100117
C  2.6650402546 0.6768400669 0.2371900082
O  3.0559401512 1.7084900141 0.7788100839
N  3.4477102757 0.0285700038 -0.6886600852
N  3.0759401321 -1.1133000851 -1.3345299959
C  3.9437301159 -1.5642101765 -2.1764402390
H  -0.4613400400 0.2077100128 1.6280401945
H  0.7620500326 1.5767401457 1.9142402411
H  1.0735601187 -0.8524900675 0.0404100008
H  4.3441500664 0.4616200328 -0.8799600601
H  3.7240002155 -2.4829204082 -2.7423701286
H  4.9150805473 -1.0807000399 -2.3743202686
