16

N  0.7591800690 0.0200000014 0.0888100043
C  2.2142801285 0.0218300018 0.1782600135
C  3.0441002846 -0.8422101140 -0.7283600569
C  2.5606603622 -1.4100700617 -2.0193002224
O  2.7057800293 -0.3625600338 -2.9941003323
C  2.5751399994 0.8877200484 -2.2957401276
C  3.0533201694 0.6361100674 -0.9062101245
H  0.3701600432 0.8852601051 0.4636500478
H  0.3607300222 -0.7325800657 0.6503600478
H  2.5921201706 0.1411900222 1.1928000450
H  3.9357302189 -1.3198500872 -0.3497600257
H  3.1628000736 -2.2648601532 -2.3409702778
H  1.5103901625 -1.7168000937 -1.9779701233
H  3.1874902248 1.6341601610 -2.8099503517
H  1.5289701223 1.2086101770 -2.3299303055
H  3.9512703419 1.1788899899 -0.6502700448
