12

C  1.0406200886 -0.0936400071 0.1165100038
C  2.5158202648 0.1753900200 -0.0974600017
C  3.1862204075 1.1760601997 0.8492100835
C  3.9957804680 -0.0575100034 1.2796200514
O  4.8899202347 -0.3092500269 2.0517001152
O  3.3302600384 -0.9010800719 0.4480700195
H  0.7137800455 -0.9473300576 -0.4854800403
H  0.4448700249 0.7748100162 -0.1808200181
H  0.8178500533 -0.3146300316 1.1658401489
H  2.7606401443 0.3430900276 -1.1533100605
H  2.5634801388 1.5937201977 1.6427000761
H  3.7828602791 1.9535601139 0.3686500192
