16

O  1.0080800056 -0.0779500008 -0.0954900086
C  2.4273703098 0.0689100027 -0.0315000005
C  3.3512003422 -0.5860400796 -1.0792900324
N  4.4224305153 -0.3445100188 -0.0010200001
C  3.2883903980 -0.7525500655 0.9514200687
C  4.4389901161 1.1421000957 0.1189600080
C  2.9493701458 1.4825301170 0.0928400084
H  0.6783000231 0.2444300056 0.7604801059
H  3.5089504719 -0.0451300032 -2.0190200806
H  3.1635403633 -1.6417701244 -1.3126201630
H  3.0915203094 -1.8312301636 0.9983500838
H  3.3821203709 -0.3716800213 1.9745301008
H  4.9156208038 1.4562700987 1.0540601015
H  4.9790101051 1.5989100933 -0.7174800634
H  2.6821300983 2.1035101414 -0.7677000165
H  2.6213901043 1.9688801765 1.0167800188
