15

C  1.8225501776 1.7123501301 1.1720900536
N  3.0095303059 1.9339501858 0.7201600671
O  3.6255302429 0.7020800710 0.4604600370
C  4.9521403313 0.9600800872 -0.0514400005
C  6.0373601913 1.3570600748 0.9692701101
N  6.9962506294 0.4673200548 0.2668100297
C  5.8404107094 -0.2802700102 -0.2820900083
H  1.1681301594 2.5569000244 1.4368100166
H  1.4125701189 0.6974800825 1.3119900227
H  4.9217205048 1.6138501167 -0.9337500334
H  5.8320202827 1.0475100279 2.0009500980
H  6.3187704086 2.4143102169 0.9708500504
H  7.5372304916 0.9536300898 -0.4496400356
H  5.9539804459 -0.5894900560 -1.3250200748
H  5.5643005371 -1.1571601629 0.3148200214
