20

C  1.3374000788 -0.7865800261 1.5290400982
C  2.4644403458 -0.7073900700 0.5099000335
C  2.9672501087 0.7272500396 0.3448000252
N  4.0109004974 0.7713800669 -0.6800900102
C  4.5708403587 2.1145901680 -0.8489700556
C  5.8952803612 2.4346203804 -0.2166700065
C  5.7944107056 2.2788300514 -1.7059001923
H  0.9977600574 -1.8208800554 1.6381001472
H  0.4825300276 -0.1803300232 1.2139700651
H  1.6686000824 -0.4315200150 2.5096702576
H  2.1018202305 -1.0954700708 -0.4502900243
H  3.2868502140 -1.3578501940 0.8325400352
H  3.3639001846 1.0876700878 1.3007301092
H  2.1342701912 1.3793901205 0.0573700070
H  3.6309702396 0.4303800166 -1.5628801584
H  3.8430104256 2.9222502708 -0.9109600186
H  6.4017205238 1.6540900469 0.3392700255
H  6.0386805534 3.4308803082 0.1833900064
H  5.8681206703 3.1707704067 -2.3163001537
H  6.2371306419 1.3961700201 -2.1520800591
