19

C  1.2449600697 -0.3587300181 0.1003600135
C  2.7501602173 -0.5548300147 0.0017900001
C  3.4812903404 0.7858400941 -0.1019700095
C  4.9813704491 0.6122000813 -0.1876900047
C  5.6212000847 0.6413200498 -1.3696100712
C  5.7194404602 0.4169300199 1.1086301804
O  5.6131706238 1.5993801355 1.8887001276
H  0.7387000322 -1.3277601004 0.1450899988
H  0.8615800738 0.1853200197 -0.7682700753
H  0.9824001193 0.2038100213 1.0021901131
H  2.9729301929 -1.1704400778 -0.8781000376
H  3.0947501659 -1.1133600473 0.8804301023
H  3.2304201126 1.4199901819 0.7561500669
H  3.1179301739 1.3251101971 -0.9867500663
H  5.0815100670 0.7797000408 -2.3022801876
H  6.6981506348 0.5178400278 -1.4398201704
H  6.7828202248 0.2111400068 0.9502400756
H  5.3012404442 -0.4175400436 1.6790601015
H  5.8356604576 2.3402602673 1.2991201878
