15

C  0.9038300514 0.1453800052 -0.0049900003
C  2.3484902382 -0.2837300003 0.0628100038
C  2.6478703022 -1.7368801832 -0.2119200230
N  3.2368602753 0.6188900471 0.3569200039
N  4.5390205383 0.2420900166 0.4246400297
C  5.5083603859 1.1598399878 0.7312700748
O  6.6994605064 0.8853700757 0.8091800213
H  0.8072701097 1.2168501616 0.1906400174
H  0.3282000422 -0.4080600142 0.7417800426
H  0.5079900026 -0.0732900053 -1.0003700256
H  1.7266900539 -2.2777502537 -0.4447800219
H  3.1056704521 -2.1921701431 0.6704600453
H  3.3251700401 -1.8199801445 -1.0661901236
H  4.8376102448 -0.7107100487 0.2565400302
H  5.1113905907 2.1739902496 0.9019900560
