17

C  1.0825601816 -0.0265400019 0.0500200018
C  0.7835800648 0.4529600143 1.4402500391
C  0.0140800010 -0.4236200452 2.3955800533
C  1.4742500782 -0.1547500044 2.6338202953
C  2.4138801098 0.4596400261 -0.4318400323
C  3.5962202549 -0.4678800404 -0.5369400382
O  2.8221101761 -0.1007000133 -1.6876201630
H  1.0352801085 -1.1219900846 0.0006000000
H  0.3030400276 0.3511500061 -0.6225700974
H  0.5808399916 1.5181200504 1.4658900499
H  -0.2704400420 -1.4205201864 2.0794203281
H  -0.7045900822 0.0518400036 3.0529303551
H  1.7414101362 0.5035400391 3.4533500671
H  2.1723401546 -0.9693101048 2.4754502773
H  2.5756201744 1.5193001032 -0.2851200104
H  3.5028002262 -1.4842201471 -0.1783100069
H  4.5894603729 -0.0462900028 -0.4490300119
