14

C  0.8489000797 -0.3899900317 0.0929900110
C  2.3542101383 -0.2068600208 0.0719900057
C  2.6934802532 1.2355700731 -0.1755000204
N  3.3310303688 1.5915801525 -1.2429300547
N  3.5324501991 2.9673402309 -1.2567400932
C  4.2005004883 3.3162603378 -2.3036303520
H  0.5940500498 -1.4375101328 0.2796100080
H  0.4043000340 -0.0917900056 -0.8620400429
H  0.3896600008 0.2198900133 0.8779000640
H  2.8031802177 -0.8341600895 -0.7051600218
H  2.7800202370 -0.4933200479 1.0390900373
H  2.3746201992 1.9666200876 0.5892700553
H  4.4467802048 4.3763403893 -2.4686901569
H  4.5501003265 2.5963702202 -3.0633504391
