12

C  3.0814101696 -1.1693301201 0.5327900648
O  2.3553001881 0.0147800008 0.2434800118
C  3.1266303062 1.1155900955 0.1160300076
N  2.4782500267 2.2482402325 -0.1559700072
O  3.4653203487 3.2198402882 -0.2385400087
C  4.6754508018 2.6477100849 -0.0149400020
C  4.5172605515 1.3058500290 0.2168100029
H  2.3650600910 -1.9925701618 0.6144900322
H  3.6075503826 -1.0879900455 1.4903501272
H  3.7802104950 -1.4134200811 -0.2749600112
H  5.5217103958 3.3174302578 -0.0556500070
H  5.2948904037 0.5886900425 0.4248700142
