17

N  0.9555900693 -0.0406100042 0.2101000100
C  2.4104201794 -0.1285500079 0.1097500101
C  3.0309002399 1.2713900805 0.1234000102
C  4.5593199730 1.2319800854 -0.0395500027
N  5.0868906975 2.5887000561 -0.1872700155
C  5.2177405357 0.6043100357 1.1169201136
C  5.7578001022 0.0947900116 2.0630302429
H  0.5585600138 -0.9796500802 0.1897800267
H  0.5789300799 0.4450500309 -0.6028800011
H  2.6759202480 -0.6526300311 -0.8150000572
H  2.7808401585 -0.7243900895 0.9498700500
H  2.7598803043 1.7834901810 1.0571700335
H  2.5956802368 1.8577201366 -0.6976400614
H  4.8122901917 0.6721300483 -0.9474100471
H  4.8885302544 3.1123003960 0.6647300124
H  4.5886502266 3.0677301884 -0.9340801239
H  6.2414402962 -0.3496000171 2.9010300636
