13

O  1.0381100178 0.0163800009 0.2430500090
C  2.2272403240 0.0116100013 0.0639900044
C  3.4413003922 -1.0022300482 0.0082900003
C  4.2247805595 -0.8187600374 1.3038301468
C  4.2486600876 0.7256100178 1.3460401297
C  3.4617502689 1.0030200481 0.0698500052
O  4.0027704239 0.0239000022 -0.9098300338
H  3.2825102806 -1.9700201750 -0.4608100355
H  3.7039604187 -1.2423501015 2.1678402424
H  5.2333602905 -1.2371901274 1.2431000471
H  5.2699704170 1.1138501167 1.2938901186
H  3.7523701191 1.1192600727 2.2379100323
H  3.3219902515 2.0004401207 -0.3395100236
