14

C  1.0000001192 0.0000000000 0.0000000000
C  2.4440002441 0.0000000000 0.0000000000
C  3.6341602802 0.0000000000 0.0000000000
C  5.0781602859 0.0000000000 0.0000000000
C  5.5946903229 1.4097201824 -0.0183500014
C  6.3608007431 1.9520401955 0.9381100535
H  0.6060200334 1.0208901167 0.0116900010
H  0.6059300303 -0.5205200315 0.8782500625
H  0.6059300303 -0.5002700686 -0.8899400830
H  5.4592299461 -0.5228000283 -0.8846300840
H  5.4569802284 -0.5422400832 0.8740800619
H  5.3248600960 2.0157802105 -0.8814100623
H  6.6581206322 1.3912701607 1.8188202381
H  6.7012605667 2.9801001549 0.8593600392
