15

C  1.0552600622 -0.0299800038 0.1524400115
C  2.5473501682 -0.0022300002 0.0549700037
C  3.2307503223 1.0801200867 -0.3500900269
O  4.5991306305 1.1703701019 -0.4333000183
C  5.2411203384 0.0496600047 0.1933400184
C  4.5096907616 -1.2459501028 -0.1267100126
O  3.1657001972 -1.2006701231 0.3749600351
H  0.6650200486 -0.9866600633 -0.2102900147
H  0.5940200686 0.7625200748 -0.4468000531
H  0.7428600192 0.0974500030 1.1936401129
H  2.7695300579 2.0105001926 -0.6566400528
H  6.2724905014 0.0078900000 -0.1700500101
H  5.2649302483 0.2308000177 1.2750600576
H  5.0128302574 -2.0974900723 0.3409300447
H  4.4694004059 -1.4228500128 -1.2088401318
