19

C  1.7927201986 -0.5324400067 -1.0871601105
C  1.7215901613 0.2499800324 0.2167800069
C  2.2854902744 1.6491401196 0.1009000093
C  1.5080600977 2.7298803329 0.2941500247
C  3.7534902096 1.7809301615 -0.2207600176
O  4.5023002625 1.0838000774 0.7705900669
C  5.8943901062 1.1170301437 0.4918400347
H  1.2858901024 -1.4965901375 -0.9748300910
H  2.8291702271 -0.7367200851 -1.3760300875
H  1.3084801435 0.0115800016 -1.9053701162
H  2.2545101643 -0.2972900271 1.0024501085
H  0.6725000739 0.2900800109 0.5345700383
H  0.4538400173 2.6350200176 0.5368000269
H  1.9060401917 3.7379102707 0.2276200056
H  4.0628805161 2.8330202103 -0.2293700278
H  3.9569504261 1.3595701456 -1.2117601633
H  6.4197602272 0.5922900438 1.2944800854
H  6.2558107376 2.1495201588 0.4546200335
H  6.1068105698 0.6091099977 -0.4541600347
