13

N  0.9610301256 -0.0109600006 -0.2295700163
N  2.3611803055 -0.0170100015 -0.1331500113
C  3.1455004215 1.0971900225 -0.0541800037
C  4.4577002525 0.6815900803 0.0540600009
C  4.4335503578 -0.7249200344 0.0276500024
O  5.4930601120 -1.5401901007 0.1011400074
C  3.1316502094 -1.1425300837 -0.0927200094
H  0.5666100383 0.8558700681 0.1316000074
H  0.5478000641 -0.7493100762 0.3343600035
H  2.7206304073 2.0903701782 -0.0863500014
H  5.3280405998 1.3188401461 0.1335900128
H  5.2081208229 -2.4672203064 0.0382700041
H  2.6896703243 -2.1261401176 -0.1573100239
