11

N  1.0499501228 -0.2810200453 -0.0000000000
C  2.3944699764 -0.0369200036 -0.0000000000
C  3.0535202026 1.1379899979 0.0000000000
C  2.3505203724 2.3556201458 0.0000000000
C  1.7554401159 3.3863301277 0.0000000000
C  4.4595203400 1.1379899979 0.0000000000
N  5.6105303764 1.1379899979 0.0000000000
H  0.6976000667 -1.2323900461 0.0000000000
H  0.3896300197 0.4904000461 0.0000000000
H  2.9630200863 -0.9681700468 -0.0000000000
H  1.2280501127 4.3122706413 -0.0000000000
