16

O  4.5107502937 0.6056400537 1.9305901527
C  3.4157402515 1.1270000935 1.7498000860
C  2.9922602177 1.8277901411 0.4828300178
C  4.1326103210 2.0469000340 -0.5043400526
C  5.1573801041 3.0220303535 0.0016100002
C  5.6818704605 4.1107101440 -0.8980500698
N  4.7779407501 4.4180903435 0.2080500126
H  2.6362802982 1.0710201263 2.5302600861
H  2.5354301929 2.7814402580 0.7679300308
H  2.2158100605 1.2094700336 0.0193300005
H  3.7080502510 2.4029800892 -1.4513300657
H  4.6328101158 1.0960500240 -0.7260200977
H  5.8339505196 2.5850701332 0.7291000485
H  5.2624406815 4.2252702713 -1.8902601004
H  6.7118105888 4.4247303009 -0.7871700525
H  5.2968006134 4.8152399063 0.9959800839
