13

N  1.0631000996 -0.2391200215 -0.4087300301
C  2.2887601852 -0.1818500161 0.1687200218
O  2.5364000797 -0.7530400157 1.2191501856
N  3.1632401943 0.5700500607 -0.5534600616
C  4.4743905067 0.8349200487 -0.0162500013
C  5.2764902115 1.5604600906 -1.0054100752
C  5.9311904907 2.1566700935 -1.8172701597
H  1.0411000252 -0.2706200182 -1.4176000357
H  0.4340000153 -0.8852200508 0.0518700033
H  2.7381801605 1.3075901270 -1.0943900347
H  4.9464802742 -0.1158800051 0.2538900375
H  4.3566803932 1.4250700474 0.8991100788
H  6.5141105652 2.6829001904 -2.5374600887
