13

C  1.0000001192 0.0000000000 0.0000000000
C  2.1901600361 0.0000000000 0.0000000000
C  3.6341602802 0.0000000000 0.0000000000
C  4.2362904549 -1.1908900738 -0.7822400928
N  4.6612801552 -0.6630499959 -2.1210901737
C  4.5565304756 0.6214500666 -1.9731100798
N  4.1351704597 1.1155500412 -0.7779500484
H  -0.0660200045 -0.0041100001 -0.0064500007
H  4.0262403488 0.0299100038 1.0215600729
H  3.5311102867 -2.0190200806 -0.9130500555
H  5.1293501854 -1.5734801292 -0.2735800147
H  4.7645807266 1.3606901169 -2.7622401714
H  3.5651702881 1.9519500732 -0.7978100777
