15

C  1.0130600929 -0.0824500024 -0.2173400223
C  2.4039502144 0.1451200098 0.2780200243
C  3.0715601444 1.3017801046 0.2648900449
O  4.3709702492 1.3847401142 0.7582200766
C  4.7498102188 2.7730801105 0.6453500390
C  3.5887904167 3.4640302658 0.0303400028
C  2.6210401058 2.5780701637 -0.1845100224
H  0.9345900416 -1.0856400728 -0.6488100886
H  0.7204800844 0.6287700534 -0.9948700666
H  0.3031200469 -0.0139700016 0.6129500866
H  2.9090402126 -0.7264900208 0.6854000688
H  5.6435503960 2.8470401764 0.0185700022
H  4.9681606293 3.1608502865 1.6450800896
H  3.5471303463 4.5169405937 -0.1949800253
H  1.6529800892 2.7906503677 -0.6121800542
