14

C  0.6765000224 0.0010200001 -0.0888400078
C  2.1692700386 -0.0369200036 -0.1703600138
N  2.8898401260 0.8197600245 0.4758200347
O  4.2442903519 0.5594700575 0.2185600251
C  5.0252304077 1.5460200310 0.8849400878
C  6.4669604301 1.1745901108 0.6745900512
O  7.3517408371 1.9844501019 0.4088700414
H  0.3186800182 -0.9550101161 0.3022800386
H  0.2711000443 0.1414300203 -1.0943400860
H  0.3392600417 0.8132500648 0.5600600243
H  2.6175901890 -0.8227900267 -0.8030501008
H  4.8155503273 1.5340901613 1.9591101408
H  4.8301801682 2.5349299908 0.4591500163
H  6.7167501450 0.1171400100 0.8665900826
