15

C  0.9835400581 -0.0336199999 0.0076600006
N  2.4407200813 -0.0225000028 0.0276800022
C  2.9541404247 1.3525500298 -0.0149000008
C  4.4879503250 1.3650300503 0.0056000007
C  5.0106906891 2.7405302525 -0.0489400066
C  5.4419503212 3.8602302074 -0.0916000009
H  0.6267600656 -1.0674201250 0.0484700017
H  0.5915300250 0.4219600260 -0.9075100422
H  0.5709900856 0.4915800393 0.8751201034
H  2.7893202305 -0.5408800840 -0.7786600590
H  2.5770201683 1.9158501625 0.8481100202
H  2.5959703922 1.8582501411 -0.9210000634
H  4.8769903183 0.7966901064 -0.8480001092
H  4.8530106544 0.8712700605 0.9141700864
H  5.8272905350 4.8535304070 -0.1267600060
