12

C  1.0000001192 0.0000000000 0.0000000000
C  2.4440002441 0.0000000000 0.0000000000
C  3.6341602802 0.0000000000 0.0000000000
C  5.0781602859 0.0000000000 0.0000000000
N  5.5797600746 1.3664200306 0.0182500016
H  0.6059900522 1.0208801031 0.0116700009
H  0.6059200764 -0.5205100179 0.8782600164
H  0.6059300303 -0.5003000498 -0.8899300694
H  5.4600005150 -0.5140400529 -0.8885200620
H  5.4621205330 -0.5333400369 0.8754900694
H  5.2141804695 1.8596202135 -0.7945000529
H  6.5916705132 1.3500400782 -0.0846700072
