12

C  2.0365302563 -1.1332601309 -0.2879000306
C  3.1799101830 -0.4421300292 -0.2041000128
C  3.1660401821 1.0335100889 0.0392300040
O  2.1065802574 1.6359101534 0.2099800110
C  4.4936504364 1.7422702312 0.1434900165
C  5.2760500908 1.5872300863 -1.0803600550
N  5.9132804871 1.4395700693 -2.0391600132
H  2.0432600975 -2.2032101154 -0.4669200182
H  1.0673801899 -0.6504400969 -0.1846400201
H  4.1382603645 -0.9372500777 -0.3119000196
H  5.0307402611 1.3478500843 1.0125300884
H  4.3052806854 2.8047902584 0.3333600163
