11

N  0.9181600809 -0.0238400027 0.1826200038
C  2.2807903290 -0.0007300000 0.0425300039
C  3.0591201782 1.0869200230 0.0693100020
C  4.5403404236 1.0540400743 -0.0731600076
O  5.1591806412 2.1162102222 -0.0427600034
C  5.2650303841 -0.1949700266 -0.2538700104
N  5.8082003593 -1.2126600742 -0.4019000530
H  0.4509000182 -0.8065201044 -0.2730700076
H  0.4413000345 0.8638700843 0.0379100032
H  2.6887600422 -1.0036300421 -0.0833600014
H  2.6416802406 2.0779302120 0.2091000080
