17

C  2.2810602188 0.1690200120 2.4196701050
O  3.3732402325 1.0125501156 2.0807502270
C  3.1258304119 1.8634301424 0.9489600658
C  2.1141602993 2.9544501305 1.3051300049
C  4.4827003479 2.4627301693 0.5428000689
C  4.4253001213 3.2076702118 -0.7245401144
C  4.3864803314 3.8262104988 -1.7544701099
H  2.6311001778 -0.5601601005 3.1556901932
H  1.9134501219 -0.3719500303 1.5427900553
H  1.4741100073 0.7474300861 2.8770503998
H  2.7396702766 1.2541501522 0.1214100048
H  2.4340100288 3.5067203045 2.1952502728
H  1.1351701021 2.5223302841 1.5348200798
H  1.9715801477 3.6618702412 0.4829500318
H  5.2179002762 1.6528900862 0.4509200454
H  4.8592004776 3.1092200279 1.3453301191
H  4.3560304642 4.3795704842 -2.6640102863
