16

C  3.0530002117 -1.1657601595 0.1945500076
C  3.8745400906 -0.3829600215 -0.8164300919
C  3.8359801769 1.1154901981 -0.5299400687
C  4.6544504166 1.9084901810 -1.5264101028
O  5.2915105820 1.4204300642 -2.4564402103
N  4.6323003769 3.2646403313 -1.2932101488
O  5.2812705040 4.0571904182 -2.2692699432
H  3.0902800560 -2.2354302406 -0.0338100046
H  2.0047800541 -0.8508600593 0.1766800135
H  3.4384202957 -1.0213201046 1.2088600397
H  3.4913201332 -0.5802100897 -1.8247901201
H  4.9106602669 -0.7413501143 -0.7960200906
H  4.2294101715 1.3156601191 0.4735900462
H  2.8014900684 1.4764901400 -0.5712300539
H  3.9008603096 3.7182002068 -0.7568200827
H  5.6473002434 3.3793501854 -2.8802902699
