17

C  0.7803100348 -0.1050400063 -0.5229400396
C  2.2122702599 -0.0521600023 -0.0363899991
C  3.2412102222 -0.7479800582 -0.9148100615
N  3.1412103176 0.7019300461 -0.9015401006
C  2.4400200844 0.0325400010 1.4907501936
C  1.5737501383 0.8382200599 2.4292902946
N  1.5010401011 -0.6163600683 2.4116301537
H  0.7182900310 -0.1692900211 -1.6154900789
H  0.2340700179 0.7929500937 -0.2180300206
H  0.2683700323 -0.9817700982 -0.1138700023
H  2.9070100784 -1.2421901226 -1.8191801310
H  4.1163601875 -1.1855599880 -0.4509900510
H  3.8894302845 1.1197201014 -0.3484000266
H  3.4830503464 -0.0563600026 1.7941901684
H  0.7160500884 1.3644700050 2.0308301449
H  2.0345802307 1.2948000431 3.2960402966
H  1.9984900951 -1.0199600458 3.2066102028
