17

C  1.0000001192 0.0000000000 0.0000000000
C  2.4440002441 0.0000000000 0.0000000000
C  3.6341602802 0.0000000000 0.0000000000
C  5.0799002647 0.0118800011 0.0023500002
C  5.7450203896 1.0549300909 0.9393200874
C  6.8221101761 -0.0078000003 1.2388601303
C  5.7662706375 -1.0719101429 0.8745600581
H  0.6059700847 1.0208600760 0.0117700007
H  0.6060300469 -0.5205800533 0.8782600164
H  0.6059200764 -0.5002800226 -0.8899300694
H  5.4984006882 0.0472200029 -1.0133200884
H  5.1514506340 1.3339700699 1.8186101913
H  6.1075501442 1.9655101299 0.4545600116
H  7.6750206947 0.0216100011 0.5511900783
H  7.1915507317 -0.0353800021 2.2667801380
H  6.1471004486 -1.9438900948 0.3356000483
H  5.1790003777 -1.4160600901 1.7347301245
