19

C  0.7920900583 0.3311700225 0.1991000175
C  2.2719702721 0.0987700075 0.1520200223
C  2.8018100262 -1.1340700388 0.1740200222
C  3.2080802917 1.2557801008 0.0351700038
C  2.6366603374 2.6977701187 0.1202700138
C  3.9239501953 3.0805802345 0.8811401129
C  4.0038304329 1.6058701277 1.3248699903
H  0.4695300162 0.9347100258 -0.6552700996
H  0.5148500204 0.8485400677 1.1229900122
H  0.2303300202 -0.6086699963 0.1674800068
H  2.1762001514 -2.0195300579 0.2424800098
H  3.8748703003 -1.2969400883 0.1232000068
H  3.8645901680 1.1417200565 -0.8411300778
H  1.7346200943 2.8281803131 0.7285700440
H  2.4912900925 3.2059602737 -0.8371500969
H  4.7478604317 3.3924002647 0.2291300148
H  3.8040103912 3.8138501644 1.6822401285
H  5.0130305290 1.1900700331 1.3894401789
H  3.4752202034 1.4030101299 2.2644901276
