17

C  1.1576701403 -0.2378400117 -0.0198000018
C  2.6750802994 -0.2558200061 -0.1125300080
N  3.2260401249 0.9524400234 0.4984200299
C  4.6877803802 0.9997701049 0.4171800315
C  5.3341007233 1.7037801743 -0.7417700291
C  5.3745403290 2.3197803497 0.6258700490
H  0.7412700057 -1.1449201107 -0.4707300365
H  0.7387300730 0.6247400641 -0.5494400263
H  0.8225500584 -0.1965600252 1.0224601030
H  2.9689402580 -0.3162000179 -1.1663800478
H  3.0570402145 -1.1478400230 0.3972200155
H  2.9203102589 1.0129600763 1.4693100452
H  5.2049503326 0.1291600168 0.8166100383
H  4.6947302818 2.1648001671 -1.4851801395
H  6.2512707710 1.2860500813 -1.1402100325
H  6.3194403648 2.3211102486 1.1557900906
H  4.7644605637 3.1990001202 0.8009000421
