18

C  1.0079500675 -0.2196000218 0.0299100038
C  2.5224702358 -0.0334799998 0.0297200009
C  3.0273902416 1.4328200817 0.0000000000
C  2.5169603825 2.1803100109 -1.2408601046
N  2.5773301125 2.1631300449 1.1873500347
C  4.4713902473 1.4328200817 0.0000000000
C  5.6615505219 1.4328200817 0.0000000000
H  0.7678500414 -1.2869801521 0.0614300072
H  0.5507900715 0.1917300224 -0.8746801019
H  0.5414200425 0.2476000190 0.9021600485
H  2.9280900955 -0.5742600560 -0.8358300924
H  2.9263100624 -0.5448400378 0.9142100811
H  2.7962400913 1.6534200907 -2.1612601280
H  2.9430503845 3.1897902489 -1.3061500788
H  1.4269200563 2.2898302078 -1.2376199961
H  2.8786001205 1.6614800692 2.0209901333
H  1.5616101027 2.1923501492 1.2162200212
H  6.7267904282 1.4421601295 0.0037400003
