17

C  1.5122301579 0.2067600191 0.8072100878
N  2.8980901241 0.5763000846 0.5670100451
C  3.1576204300 1.6132501364 -0.1675100029
C  2.0608401299 2.4622201920 -0.7900200486
N  4.4453201294 2.0571300983 -0.4657500386
C  5.4879102707 1.0308201313 -0.6280700564
C  5.4676604271 1.9015301466 0.5815400481
H  1.4899600744 -0.7036000490 1.4148300886
H  0.9826200604 -0.0151700014 -0.1243000105
H  0.9796700478 0.9819000363 1.3666501045
H  1.4733101130 1.8552001715 -1.4849001169
H  2.4893400669 3.3024103642 -1.3444701433
H  1.4093500376 2.8622803688 -0.0087100007
H  6.1802706718 1.2602500916 -1.4245600700
H  5.1529207230 0.0059100003 -0.5466900468
H  5.1177506447 1.4940800667 1.5200300217
H  6.1457805634 2.7405903339 0.6317501068
