13

C  1.0659101009 0.0071400008 -0.0041300002
C  2.5562901497 0.0209900029 -0.0192200020
N  3.2741401196 -1.0537101030 -0.0702500120
O  4.6286206245 -0.6354700923 -0.0337200053
C  4.6558504105 0.7579100728 -0.3597400486
C  3.3206300735 1.2869001627 0.0872900113
H  0.6918100715 -1.0142201185 -0.1104300097
H  0.6893700957 0.6160800457 -0.8295900226
H  0.7105100751 0.4245700240 0.9411100745
H  4.7938303947 0.8573001027 -1.4417201281
H  5.4903602600 1.2441000938 0.1521400213
H  2.9322900772 2.0793602467 -0.5546400547
H  3.3277802467 1.6090401411 1.1326500177
