17

C  0.9537800550 0.2398200184 -0.7968201041
C  2.4370701313 0.1982700080 -0.6354100108
C  3.1847100258 1.2393800020 -0.2362100184
C  4.6415004730 1.2261000872 -0.0660200045
O  5.5289306641 0.6096000671 -1.0182600021
C  5.4784502983 2.0387001038 -1.0265200138
C  6.7334008217 2.7016501427 -0.5835900307
H  0.6847300529 0.0069000004 -1.8321501017
H  0.5368400216 1.2209300995 -0.5484500527
H  0.4866500497 -0.5046400428 -0.1443500072
H  2.9263901711 -0.7452200055 -0.8678900599
H  2.6918702126 2.1817700863 -0.0060800002
H  4.9553604126 1.1885499954 0.9728600979
H  5.0145502090 2.5216701031 -1.8759201765
H  7.2106304169 2.1678502560 0.2442600131
H  6.5212302208 3.7226803303 -0.2535200119
H  7.4456806183 2.7516400814 -1.4123400450
