16

C  1.3799000978 -0.5140000582 0.1760700196
C  2.7566902637 -0.0874300078 -0.2953300178
O  3.1652703285 1.0447801352 0.4859300554
C  4.3682703972 1.5814300776 0.1749800146
N  5.1368603706 1.1370700598 -0.7576400042
O  6.2916407585 1.9320801497 -0.8018400073
C  7.1332707405 1.4454801083 -1.8396301270
H  1.0253300667 -1.3809601068 -0.3880100250
H  0.6616500020 0.3037200272 0.0562700033
H  1.3984900713 -0.7679000497 1.2410900593
H  2.7139501572 0.1879000068 -1.3554500341
H  3.4675703049 -0.9091700912 -0.1525800079
H  4.5896801949 2.4417002201 0.8263700604
H  8.0255403519 2.0765302181 -1.8864201307
H  6.6161503792 1.4948201180 -2.8031003475
H  7.4397706985 0.4163400233 -1.6275401115
