20

C  1.0597701073 0.0829300061 -0.0913000032
C  2.5503501892 0.0531900041 -0.0601600036
C  3.3777501583 -0.6747700572 -1.0908300877
N  2.7566702366 -1.3819701672 -2.2065203190
C  3.4257802963 0.8420900702 -1.0249700546
C  2.8144700527 1.6733901501 -2.1263101101
C  4.6805105209 1.4647101164 -0.4553600252
H  0.6913400292 0.8676700592 0.5767800808
H  0.6627500653 -0.8728401065 0.2648600042
H  0.6408300400 0.2673300207 -1.0826801062
H  2.8898401260 -0.0318900011 0.9692000747
H  4.2575302124 -1.1950900555 -0.7097800374
H  1.9014201164 -0.9282901287 -2.5203602314
H  2.4811604023 -2.3217401505 -1.9225001335
H  1.9283601046 1.2243701220 -2.5809803009
H  3.5453801155 1.8307502270 -2.9270901680
H  2.5223102570 2.6545803547 -1.7370700836
H  5.1079902649 0.8634200692 0.3540400267
H  4.4624700546 2.4596600533 -0.0536600053
H  5.4421806335 1.5658601522 -1.2355500460
