21

C  1.0383000374 -0.1614600122 0.3604300320
C  2.5598204136 -0.1558500081 0.2827000320
C  3.1866004467 1.2450700998 0.4522000253
N  2.8671503067 1.8080701828 1.7795500755
C  4.7350306511 1.1841400862 0.2415800244
C  5.3341007233 2.5857601166 0.0853500068
N  5.4034004211 0.5000800490 1.3651100397
H  0.6546100378 -1.1571700573 0.1135700047
H  0.6037600040 0.5533100367 -0.3457000256
H  0.6854700446 0.0851900056 1.3668301105
H  2.8496704102 -0.5556700230 -0.6966400743
H  2.9532101154 -0.8504200578 1.0339900255
H  2.7613601685 1.9111301899 -0.3086800277
H  3.1209702492 1.1081300974 2.4782700539
H  1.8576601744 1.9219701290 1.8621401787
H  4.9461302757 0.6204300523 -0.6751200557
H  5.1960406303 3.1945703030 0.9853400588
H  4.8671603203 3.1125001907 -0.7535000443
H  6.4092102051 2.5292403698 -0.1183800101
H  5.2325105667 1.0608800650 2.2009902000
H  6.4122705460 0.5320800543 1.2202401161
