14

C  0.9690800905 0.0339800045 -0.0726800039
C  2.4810402393 -0.0116100013 0.0807000026
O  2.8436903954 -1.2193300724 0.7793900371
C  3.3862001896 -0.8633701205 2.0627601147
C  3.5265903473 0.6104400754 2.0419201851
C  3.0103101730 1.0982700586 0.9162200689
H  0.6220000386 -0.8248400688 -0.6575800180
H  0.6434400082 0.9519200325 -0.5725200176
H  0.4677000344 -0.0304600019 0.9007101059
H  2.9652104378 -0.0280200019 -0.9013801217
H  4.3486704826 -1.3664101362 2.1898601055
H  2.6946301460 -1.1929301023 2.8438901901
H  3.9737303257 1.1919900179 2.8345103264
H  2.9732203484 2.1414401531 0.6404500008
