19

C  2.2438502312 -0.4729400277 -1.3805401325
N  2.2937400341 0.1151600108 -0.0470800027
C  3.2084102631 1.2593200207 -0.0483300015
C  2.4583001137 2.5381801128 -0.4969000220
C  3.1779103279 3.2649002075 0.6697199941
C  3.2229001522 1.8912101984 1.3772901297
N  4.5317006111 1.7007701397 1.9990501404
H  1.5391200781 -1.3103400469 -1.3820401430
H  3.2231101990 -0.8566800952 -1.6855200529
H  1.8956700563 0.2490700185 -2.1263601780
H  2.5578901768 -0.6085500121 0.6210600734
H  4.1873903275 1.1044901609 -0.5184200406
H  1.3670800924 2.5197801590 -0.3844100535
H  2.7035601139 2.9052600861 -1.4972401857
H  4.1456003189 3.6916103363 0.3771700263
H  2.5900001526 4.0382103920 1.1719601154
H  2.3626000881 1.6890400648 2.0247402191
H  5.3267407417 1.9144600630 1.3983501196
H  4.6813602448 0.7517200708 2.3371002674
