15

N  1.4941101074 -2.4975802898 0.8528100848
N  2.1731202602 -1.3554500341 1.1032100916
C  2.3764703274 -0.6384100318 0.0412700027
C  3.1301202774 0.6625400782 0.1160900071
O  2.2794001102 1.6577401161 -0.4451300204
C  2.7566602230 2.9374203682 -0.4695200324
C  3.9336304665 3.4071402550 -0.0394300036
H  1.4354001284 -3.0502803326 1.7125401497
H  0.5222300291 -2.3004701138 0.5988300443
H  2.0371301174 -0.9563601017 -0.9621000290
H  4.0396499634 0.5563700795 -0.4851300418
H  3.3707201481 0.8889700770 1.1604900360
H  2.0104000568 3.5888702869 -0.9124900699
H  4.6958503723 2.7824201584 0.4088300467
H  4.1582603455 4.4658904076 -0.1298100054
