16

N  2.5660800934 -1.2559800148 -0.2110900134
C  1.9960201979 0.0397100039 0.1582000107
C  3.1017704010 1.0874301195 0.2321500182
N  4.3202705383 0.7151000500 0.9862600565
C  3.3046302795 1.9869000912 -0.9650400877
C  2.6857800484 2.5363101959 0.2870600224
H  1.8122501373 -1.9380902052 -0.2731800377
H  3.1693904400 -1.5704001188 0.5440600514
H  1.5038301945 -0.0419000052 1.1339001656
H  1.2339000702 0.3217000067 -0.5763700008
H  4.0725903511 0.3404000401 1.8992601633
H  4.7880706787 -0.0381800048 0.4806800485
H  2.6707201004 1.8447802067 -1.8321602345
H  4.3141603470 2.2965703011 -1.2091201544
H  3.2796101570 3.2197504044 0.8837400675
H  1.6293901205 2.7787504196 0.2644100189
