18

C  0.8480401039 0.0369900018 0.0174000002
C  2.1626601219 0.1164900064 0.2681200206
C  3.0279002190 1.3396100998 0.2031800151
C  2.3255102634 2.6881003380 0.0900900066
C  3.3833901882 3.6780202389 0.5511800647
C  4.3355402946 2.8596401215 1.4125101566
N  3.7860503197 1.5040000677 1.4458000660
H  0.3294600248 -0.9136300683 0.0970300063
H  0.2562800050 0.9012400508 -0.2637100220
H  2.6776802540 -0.8043000698 0.5366900563
H  3.7301301956 1.2194000483 -0.6329200864
H  1.4568301439 2.7528300285 0.7581200004
H  1.9863102436 2.9017100334 -0.9287200570
H  3.9171204567 4.0944304466 -0.3108000159
H  2.9333002567 4.5078506470 1.1053000689
H  5.3378500938 2.8568701744 0.9690700769
H  4.4150905609 3.2661004066 2.4252400398
H  4.5359001160 0.8184800744 1.5003700256
