14

N  0.9547801018 -0.0011200000 0.0087800007
C  2.4179100990 0.0059800004 0.0347900018
C  2.9773900509 1.4328200817 0.0000000000
C  4.4213900566 1.4328200817 0.0000000000
C  5.6115503311 1.4328200817 0.0000000000
C  7.1438207626 1.4315201044 -0.0000900000
C  8.3438711166 1.4306000471 0.0001400000
H  0.6253800392 -0.9661800265 0.0244100019
H  0.6258300543 0.3944600224 -0.8716100454
H  2.7929902077 -0.5708100200 -0.8191300631
H  2.7562501431 -0.5059600472 0.9433200955
H  2.6042602062 1.9944401979 0.8650600910
H  2.6085600853 1.9504401684 -0.8940100670
H  9.4094305038 1.4305701256 0.0010300002
