14

O  0.7943000793 1.8211301565 -0.0250100009
N  2.0254001617 1.6200602055 -0.6627300382
C  2.9267401695 1.3904200792 0.2380100191
C  4.4012703896 1.1369301081 -0.1569200158
C  5.1346902847 2.2182602882 -0.9590300322
C  6.1696004868 2.1666800976 0.1565400213
O  5.3356304169 1.2958400249 0.9533400536
H  0.1920800209 1.9840601683 -0.7756300569
H  2.6883499622 1.3758701086 1.3161001205
H  4.5221104622 0.1336600035 -0.5873400569
H  4.6112303734 3.1745400429 -1.0443401337
H  5.4937701225 1.9034001827 -1.9420402050
H  7.1162004471 1.6835601330 -0.1020200104
H  6.3605003357 3.1180503368 0.6604700685
