10

N  0.8309000731 0.2586000264 -0.0099300006
C  1.9871001244 0.1558700055 -0.0049500004
C  3.4116902351 0.0515900068 0.0011900001
C  4.2853703499 1.1205400229 0.0042600003
C  5.6499004364 0.7032999992 0.0103600007
C  5.7684202194 -0.6688700318 0.0117100012
S  4.2427101135 -1.4438000917 0.0056500006
H  3.9659302235 2.1568601131 0.0022600000
H  6.5000905991 1.3753701448 0.0135900015
H  6.6768903732 -1.2564501762 0.0159600005
