19

C  3.4723904133 -0.6730900407 -1.2202000618
C  2.9937701225 0.1187400073 -0.0082700001
C  3.2987101078 1.6332701445 -0.0562100038
C  2.6734402180 2.3076400757 -1.2833900452
C  2.7447302341 2.2951800823 1.2166500092
C  4.8103804588 1.8362801075 -0.0372200012
O  5.4445405006 2.4328303337 -0.9028500319
H  3.2568402290 -1.7373301983 -1.0769001245
H  4.5520200729 -0.5698400736 -1.3672901392
H  2.9639601707 -0.3567800224 -2.1356801987
H  3.4555201530 -0.3210400045 0.8851000667
H  1.9116401672 -0.0336100012 0.0952200070
H  3.1154303551 1.9469300508 -2.2178802490
H  2.8302800655 3.3925902843 -1.2594801188
H  1.5934801102 2.1274600029 -1.3260301352
H  3.1787300110 1.8500301838 2.1195402145
H  1.6561400890 2.1875700951 1.2785401344
H  2.9802100658 3.3656001091 1.2406700850
H  5.3366508484 1.4001600742 0.8305500746
