19

C  1.1349700689 -0.8106000423 0.0139700016
C  2.5105202198 -0.2407200187 -0.1229400113
C  2.8815603256 1.0520501137 0.0041700001
C  1.9322301149 2.1865701675 0.2834900022
N  1.8645900488 2.4429402351 1.7190802097
C  4.3302202225 1.4485800266 -0.1337900013
N  4.5797004700 2.0070502758 -1.4583101273
H  1.1547000408 -1.6438801289 0.7235700488
H  0.7944300771 -1.1943800449 -0.9525200725
H  0.3994000256 -0.0903400108 0.3778700233
H  3.2797904015 -0.9814700484 -0.3389200270
H  0.9287500978 1.9770001173 -0.1003600135
H  2.2619001865 3.0961000919 -0.2312300205
H  1.4811401367 1.6167900562 2.1740701199
H  1.1956601143 3.1929101944 1.8832801580
H  4.9915103912 0.5874699950 0.0208999999
H  4.5963902473 2.1839301586 0.6338600516
H  4.4131903648 1.2787500620 -2.1505401134
H  5.5666804314 2.2449402809 -1.5304001570
