16

C  0.9166500568 0.0118700014 -0.1663000137
C  2.3894701004 -0.1259700060 0.0151700014
C  3.2216200829 -0.8192400336 -1.0271100998
C  3.3356802464 0.6717000604 -0.8447100520
N  4.5201907158 1.2380400896 -0.2966900468
C  4.5301499367 2.3063101768 0.5543400645
O  5.5566906929 2.8096101284 0.9920100570
H  0.5481399894 0.8738300800 0.3982700408
H  0.4067500532 -0.8824000359 0.2046100050
H  0.6415200233 0.1498900056 -1.2168800831
H  2.6515202522 -0.2880200148 1.0550000668
H  2.7351701260 -1.1828200817 -1.9251900911
H  4.0340604782 -1.4495401382 -0.6826700568
H  2.9058103561 1.2857002020 -1.6333202124
H  5.4304504395 0.8852700591 -0.5689600706
H  3.5234301090 2.6743402481 0.8121000528
