11

O  1.0383300781 -0.2292400151 0.1511700153
N  2.4382300377 -0.1744800210 0.0986500084
C  2.8738603592 1.0334200859 -0.0914000049
C  2.0593299866 2.2739901543 -0.2464400232
C  2.5883402824 3.4890100956 -0.4405300319
C  4.3263802528 1.0355800390 -0.1379300058
N  5.4892902374 1.0770801306 -0.1809800118
H  0.8693900704 -1.1806701422 0.2953200340
H  0.9828801155 2.1511201859 -0.1942400038
H  3.6570701599 3.6728303432 -0.5013800263
H  1.9396601915 4.3545503616 -0.5461500883
