18

C  0.9989000559 0.1217400059 0.2125800252
C  2.4750401974 -0.1146400124 -0.0802400038
N  2.7422602177 -1.4858901501 -0.5441700220
C  2.7626202106 -1.5039901733 -2.0100402832
C  3.2459404469 -0.1375400126 -2.3635103703
C  2.3092401028 1.0326700211 -2.4851002693
C  3.0205800533 0.7446000576 -1.1834400892
H  0.8205500841 1.1709601879 0.4680100381
H  0.6683500409 -0.4951400459 1.0548501015
H  0.3619400263 -0.1226600111 -0.6439600587
H  3.0481603146 0.0578000024 0.8383300304
H  2.0479202271 -2.1376502514 -0.1890600026
H  3.4363300800 -2.2843701839 -2.3740601540
H  1.7595500946 -1.6838800907 -2.4125301838
H  4.2109804153 -0.1176800132 -2.8486201763
H  2.6444303989 1.8883001804 -3.0610802174
H  1.2474101782 0.8407200575 -2.5684602261
H  3.8243904114 1.3952001333 -0.8663500547
