13

C  1.0143001080 0.0199100021 0.0430200025
N  2.4276301861 0.0062500001 -0.2902400196
N  3.1977300644 1.1022001505 0.1023100093
C  4.5261201859 0.7003500462 0.1392400116
O  5.5183506012 1.3986500502 0.2014800161
C  4.5225801468 -0.7772000432 0.0472600013
C  3.2422101498 -1.0921601057 -0.1942200065
H  0.6050900817 1.0329200029 -0.0269500017
H  0.8494500518 -0.3495300114 1.0634701252
H  0.4594800472 -0.6161500812 -0.6541500688
H  2.9731802940 2.0374400616 -0.2180300206
H  5.3873305321 -1.4043600559 0.1612000018
H  2.8263702393 -2.0858502388 -0.2908900082
