20

C  1.3861700296 2.0859003067 -0.4286200404
C  2.6952302456 1.7646900415 0.2757700384
N  3.8175203800 2.0423099995 -0.6177800894
C  5.1350607872 1.6799200773 -0.0553000048
C  5.5914106369 2.4579000473 1.1558899879
C  5.5803804398 0.2421700209 -0.1765700132
C  6.1947808266 1.2872101068 -1.0593100786
H  0.5408400893 1.8913000822 0.2396900207
H  1.2565801144 1.4691101313 -1.3247601986
H  1.3427001238 3.1389403343 -0.7272600532
H  2.6929101944 0.7097400427 0.5709600449
H  2.7658200264 2.3715202808 1.1844000816
H  3.8039302826 3.0222601891 -0.8991200924
H  6.6450505257 2.2684001923 1.3900201321
H  5.0040202141 2.1785001755 2.0364100933
H  5.4751205444 3.5337302685 0.9879400730
H  4.9038004875 -0.4699500203 -0.6357900500
H  6.1915807724 -0.1803900152 0.6120400429
H  7.2246904373 1.5692200661 -0.8716800809
H  5.9315805435 1.2756301165 -2.1112101078
