15

C  1.9667501450 -0.4234300256 -1.5426001549
O  2.1818602085 0.2102500051 -0.2896500230
C  3.1530702114 1.2813000679 -0.2891100347
C  2.6258001328 2.6819500923 -0.6952500343
C  2.8138301373 3.2273402214 0.7351600528
C  3.4536201954 1.8846801519 1.1070301533
O  4.0165700912 1.4885702133 2.1076600552
H  1.1956501007 -1.1875001192 -1.4194501638
H  2.8892703056 -0.9016200900 -1.8836102486
H  1.6286700964 0.3069300056 -2.2829802036
H  4.0750904083 0.9873200655 -0.8050400615
H  1.5863400698 2.6986503601 -1.0393600464
H  3.2429902554 3.1817402840 -1.4497300386
H  3.4947602749 4.0785503387 0.8184700608
H  1.8875601292 3.4305901527 1.2773500681
