16

C  0.8483900428 -0.2501000166 0.1152900085
C  2.3332002163 -0.0657300055 0.1563699991
C  3.0340402126 1.0731000900 -0.0241200011
C  2.4153201580 2.4296500683 -0.2484200150
C  4.5529804230 1.0634500980 0.0325900018
C  5.1485805511 1.3756201267 -1.2779000998
N  5.6327300072 1.6286300421 -2.3017001152
H  0.6045400500 -1.0860400200 -0.5486000180
H  0.3080900311 0.6231900454 -0.2548800111
H  0.4762000144 -0.4913500249 1.1155200005
H  2.8781602383 -0.9927501082 0.3372900188
H  1.3416100740 2.4523501396 -0.0492000058
H  2.5736501217 2.7568001747 -1.2808401585
H  2.8708600998 3.1672503948 0.4213800132
H  4.9242005348 0.0875100046 0.3684000373
H  4.8904204369 1.7907000780 0.7806300521
