20

C  1.3625301123 -0.1373100132 0.1572500169
C  2.6897003651 0.1569300145 -0.5608200431
C  2.6445903778 -0.5798799992 -1.8824201822
C  3.4419503212 -1.6054800749 -2.2126603127
N  2.9174902439 1.6051000357 -0.7774800658
C  2.8543901443 2.3692500591 0.4728600383
C  4.2223300934 1.8507602215 -1.4085301161
H  1.3821001053 0.2032000124 1.1977900267
H  1.1588799953 -1.2151000500 0.1847700179
H  0.5158600211 0.3467900157 -0.3452400267
H  3.4991402626 -0.2516700029 0.0608600043
H  1.9057501554 -0.2326200157 -2.6029701233
H  4.1974601746 -1.9828001261 -1.5299401283
H  3.3556802273 -2.0836901665 -3.1825301647
H  1.8442600965 2.3628101349 0.8940801024
H  3.0888202190 3.4255802631 0.2946600318
H  3.5545103550 1.9873402119 1.2251001596
H  4.2757000923 1.4104801416 -2.4101603031
H  5.0508503914 1.4561800957 -0.8088001013
H  4.3851199150 2.9255402088 -1.5510801077
