14

C  1.4837901592 -0.4588700235 -0.9533500671
N  2.7981703281 -0.3139100075 -0.3295000196
N  3.2153303623 0.9684800506 -0.1674700081
C  4.4917302132 1.1237500906 0.0171400011
C  5.5541806221 0.0708900094 0.0608900040
C  4.8704104424 2.5093002319 0.1850300133
N  5.2191305161 3.6079003811 0.3311000168
H  1.2430900335 -1.5201801062 -1.0651301146
H  1.4764901400 -0.0040900004 -1.9488800764
H  0.7062600851 0.0104800016 -0.3424600065
H  2.7593502998 -0.7951600552 0.5746000409
H  5.3319807053 -0.6452400088 0.8571401238
H  6.5360703468 0.5130000114 0.2518100142
H  5.5869002342 -0.4569800496 -0.8965300918
