19

C  0.9319300652 0.0738100037 -0.1906500161
C  2.4032502174 -0.0529400073 0.0136100017
C  3.2801201344 -0.8718200326 -0.9050800800
C  2.7383601665 -1.6081601381 -2.0829701424
C  3.3650202751 0.6381400824 -0.9275500774
C  4.5496106148 1.2885299921 -0.3593100309
C  5.7904901505 1.2197901011 -0.8559901118
H  0.5442000628 0.9073900580 0.4037000239
H  0.4259400368 -0.8397900462 0.1369300187
H  0.6650200486 0.2591400146 -1.2355400324
H  2.6441400051 -0.0900200084 1.0715200901
H  4.0850505829 -1.4305900335 -0.4376500249
H  2.0262901783 -1.0126401186 -2.6619603634
H  2.2359900475 -2.5236401558 -1.7561601400
H  3.5565001965 -1.8909600973 -2.7528102398
H  2.9438202381 1.1576201916 -1.7831901312
H  4.3895301819 1.8893901110 0.5347700715
H  6.0076303482 0.6417000890 -1.7485101223
H  6.6117005348 1.7398800850 -0.3751100302
