20

C  1.8432102203 -0.5876400471 1.2129900455
C  2.6497700214 -0.1981900185 -0.0161400009
C  2.9934101105 1.2632300854 -0.0074800006
C  4.2483201027 1.7396801710 -0.0079100011
C  4.5880303383 3.2055704594 -0.0210300032
C  5.4007902145 3.6100702286 1.2144299746
N  5.7554202080 5.0275807381 1.1715900898
H  1.5901100636 -1.6519701481 1.1768500805
H  0.9081600308 -0.0204400029 1.2700500488
H  2.4099702835 -0.4050400257 2.1319601536
H  2.0662102699 -0.4163400233 -0.9180600643
H  3.5549101830 -0.8151400685 -0.0639300048
H  2.1546499729 1.9574700594 -0.0147900013
H  5.0877504349 1.0471200943 -0.0146300010
H  3.6764700413 3.8137502670 -0.0777900070
H  5.1653704643 3.4138102531 -0.9304400682
H  6.3191804886 3.0145301819 1.2767001390
H  4.8214101791 3.4173202515 2.1245701313
H  6.3339304924 5.2111601830 0.3528600335
H  6.3285903931 5.2544603348 1.9831601381
