15

C  1.0000001192 0.0000000000 0.0000000000
C  2.1901600361 0.0000000000 0.0000000000
C  3.6341602802 0.0000000000 0.0000000000
C  4.1918206215 -1.2195900679 -0.7614001036
C  4.5139503479 -0.6678200364 -2.1150901318
C  4.5148000717 0.6692399979 -2.1150403023
C  4.1919703484 1.2193101645 -0.7591900229
H  -0.0656800047 0.0000000000 -0.0041400003
H  3.9926302433 -0.0006900000 1.0361000299
H  3.4769303799 -2.0461502075 -0.8254500628
H  5.1117205620 -1.5877300501 -0.2946400344
H  4.7371802330 -1.2847601175 -2.9750003815
H  4.7385301590 1.2874801159 -2.9734902382
H  5.1132006645 1.5872402191 -0.2925800383
H  3.4780402184 2.0474503040 -0.8232300282
