18

C  1.9468500614 -0.6316100359 -1.3417801857
C  2.4178402424 -0.1093900129 0.0081100008
C  3.1379802227 1.2190600634 -0.1139100045
N  4.4281401634 1.1392900944 -0.8350500464
C  2.3725502491 2.4849600792 -0.5624600649
O  2.9782202244 3.2635502815 0.5079800487
C  3.3601403236 2.0305502415 1.1857401133
H  1.3872400522 -1.5641001463 -1.2103500366
H  2.7892401218 -0.8390400410 -2.0086500645
H  1.2918101549 0.0898900107 -1.8397902250
H  3.0665102005 -0.8550600410 0.4815500379
H  1.5414001942 -0.0007300000 0.6579500437
H  4.9470005035 2.0214602947 -0.8189600706
H  4.3369302750 0.9006400704 -1.8219801188
H  1.2842200994 2.4494702816 -0.4451300204
H  2.6154804230 2.8870303631 -1.5506501198
H  4.3806505203 2.0772900581 1.5784901381
H  2.6694803238 1.8153101206 2.0083901882
