16

C  0.8958100677 0.2064900249 -0.0749700069
N  2.3008701801 -0.0310800020 -0.3831300139
C  3.1292302608 1.0852600336 0.1016400084
C  4.5941505432 0.8516500592 -0.2605700195
O  5.2240204811 1.6526901722 -0.9497100711
C  5.2423505783 -0.3786000013 0.2866400182
C  6.5402302742 -0.6299900413 0.0739600062
H  0.2980100214 -0.6394200921 -0.4276000261
H  0.5247500539 1.1103800535 -0.5689400434
H  0.7365201116 0.2965000272 1.0042500496
H  2.4066603184 -0.0949500129 -1.3981699944
H  3.0606102943 1.1900501251 1.1903800964
H  2.8121101856 2.0284802914 -0.3584000468
H  4.6162405014 -1.0552901030 0.8566700816
H  7.1634902954 0.0491000041 -0.5013600588
H  7.0047907829 -1.5260801315 0.4700400531
