17

C  0.9827100635 -0.1437900066 0.0723300055
C  2.5014002323 -0.0170500018 -0.0010100001
C  3.0273902416 1.4328200817 0.0000000000
C  2.5032300949 2.2379400730 -1.1900200844
O  2.5718903542 2.0867700577 1.1854501963
C  4.4713902473 1.4328200817 0.0000000000
C  5.6615505219 1.4328200817 0.0000000000
H  0.7008900642 -1.1994601488 0.1443600059
H  0.5036500692 0.2636100054 -0.8218200803
H  0.5805000663 0.3701800406 0.9496100545
H  2.8585703373 -0.5495200157 -0.8928200603
H  2.9128601551 -0.5516200662 0.8670901060
H  2.7582402229 1.7646601200 -2.1451001167
H  2.9256503582 3.2510702610 -1.1943000555
H  1.4164401293 2.3681602478 -1.1417701244
H  3.0318803787 1.6686501503 1.9331101179
H  6.7273101807 1.4392001629 -0.0015300001
