13

C  0.8874300718 -0.5414900184 -0.2565700114
C  2.2831499577 -0.0575500056 0.0929100066
N  2.3348503113 1.3835401535 0.2149000168
C  1.9949401617 2.0330402851 1.3865100145
O  1.6651002169 1.4551301003 2.4163601398
C  2.0412602425 3.4916901588 1.3461601734
N  2.0944001675 4.6501502991 1.2546700239
H  0.8772600293 -1.6303400993 -0.3650700450
H  0.5449399948 -0.0989400074 -1.1979300976
H  0.1670800000 -0.2679500282 0.5213400126
H  2.9896502495 -0.3431100249 -0.6926900744
H  2.6129200459 -0.5110400319 1.0336300135
H  2.5428001881 1.9376201630 -0.6089000106
