16

C  0.7051400542 -0.1284300089 0.1287800074
C  2.1302502155 -0.5467200279 -0.0991100073
C  2.4552500248 -1.8309102058 -0.3219900429
C  3.1789603233 0.5505600572 -0.1093200073
C  3.3347902298 1.2736400366 1.2305999994
O  3.8413903713 0.3997000158 2.2348902225
H  0.5739000440 0.2565900087 1.1455301046
H  0.0073600006 -0.9631900787 0.0012700001
H  0.4183000326 0.6536200643 -0.5815400481
H  1.7044100761 -2.6159901619 -0.3341200054
H  3.4820003510 -2.1355302334 -0.5057800412
H  2.9136400223 1.2790001631 -0.8837600350
H  4.1519103050 0.1281500012 -0.3905900419
H  2.3901700974 1.7010301352 1.5817800760
H  4.0494699478 2.0955400467 1.1234700680
H  3.2599701881 -0.3820500076 2.2507100105
