17

C  0.8668000102 0.7731200457 0.0984900072
N  2.3021500111 0.6857500672 0.1841700226
C  3.0949101448 1.7945901155 -0.0314900018
O  2.6440901756 2.9172003269 -0.2292300165
C  4.5753803253 1.4790701866 0.0283000022
C  5.4189801216 2.7045202255 -0.3015400171
N  6.8459801674 2.3833801746 -0.2286900282
H  0.4357600510 -0.1390500069 0.5172800422
H  0.5824000835 0.8706100583 -0.9525800943
H  0.5105100274 1.6447901726 0.6540500522
H  2.7333402634 -0.2298200130 0.1858700216
H  4.7883706093 0.6721600890 -0.6832700372
H  4.8059105873 1.1183000803 1.0379700661
H  5.1979904175 3.5248503685 0.3908300400
H  5.1864204407 3.0596103668 -1.3118600845
H  7.0984706879 2.1758201122 0.7372300625
H  7.3819003105 3.2139101028 -0.4823900163
