15

C  3.0650100708 -1.3230900764 0.2001200020
O  4.3284406662 -0.7407200933 -0.0915700048
C  4.2142004967 0.6677600145 -0.3163500130
C  5.5625705719 1.2744101286 -0.5798100829
C  6.7411603928 0.6320200562 -0.6213400364
C  5.5653305054 2.7401700020 -0.8138400316
O  4.5392704010 3.4095201492 -0.7979300618
H  3.2071001530 -2.3971002102 0.3474800289
H  2.3709802628 -1.1733901501 -0.6324700713
H  2.6502101421 -0.8969800472 1.1188400984
H  3.7688200474 1.1347700357 0.5702199936
H  3.5592703819 0.8361400962 -1.1796801090
H  6.7900204659 -0.4414400160 -0.4556900263
H  7.6811804771 1.1367200613 -0.8170500398
H  6.5504407883 3.1989903450 -1.0040200949
