17

C  2.6692800522 -0.6665100455 1.5265700817
C  3.1920301914 -0.2739000320 0.1536200196
C  3.1167502403 1.2102800608 -0.0596100017
C  4.1957206726 1.9854701757 -0.2518900037
C  4.0934700966 3.4515004158 -0.4853600264
N  2.9272203445 4.1464500427 -0.4094900489
N  5.1464004517 4.1546802521 -0.7630000710
H  2.6994102001 -1.7546502352 1.6452000141
H  1.6330801249 -0.3402800262 1.6667701006
H  3.2773203850 -0.2226900309 2.3222401142
H  2.5933501720 -0.7692601085 -0.6193300486
H  4.2201900482 -0.6371600628 0.0416900031
H  2.1176002026 1.6369202137 -0.0851500034
H  5.1935701370 1.5614000559 -0.2583300173
H  2.2878100872 3.8556504250 0.3183100224
H  3.1078100204 5.1450300217 -0.3951300085
H  5.9797801971 3.5622503757 -0.8088700771
