15

C  1.0897301435 -0.0192800015 -0.1545900106
N  2.5003499985 0.0529900044 0.1922100186
C  3.0756502151 1.1984800100 0.1401399970
N  4.3936901093 1.3497301340 0.4691800475
C  4.7280802727 2.7427601814 0.6162600517
C  3.4749903679 3.3824801445 0.0908500031
C  2.4957602024 2.5141000748 -0.2033800185
H  0.7667700648 -1.0644100904 -0.1134300083
H  0.9024201035 0.3381500244 -1.1726101637
H  0.4741200209 0.5418100357 0.5563200116
H  4.7865600586 0.6539600492 1.0878500938
H  5.5997605324 3.0052402020 0.0113300011
H  4.8974905014 3.0086700916 1.6636301279
H  3.3837001324 4.4526100159 -0.0271500032
H  1.5056800842 2.7040002346 -0.5721200705
