12

N  1.0352600813 0.0396800041 0.0000000000
C  2.3919901848 -0.0369500034 -0.0000000000
O  2.9970102310 -1.0984801054 -0.0000000000
C  3.0995004177 1.2176301479 0.0000000000
C  3.6945803165 2.2483401299 0.0000000000
C  4.3975801468 3.4659702778 0.0000000000
C  3.7665402889 4.6447701454 0.0000000000
H  0.5463200212 0.9225200415 0.0000000000
H  0.5116200447 -0.8240401149 0.0000000000
H  5.4834804535 3.4314403534 -0.0000000000
H  2.6836402416 4.7173905373 0.0000000000
H  4.3310303688 5.5717906952 0.0000000000
