17

C  -1.7244000435 0.8545400500 0.5653000474
C  -1.1930600405 -0.2830900252 -0.2644600272
C  -0.3232600093 -1.3627201319 0.3022900224
C  1.0686501265 -1.2320301533 -0.3212800026
O  1.6984601021 0.0454400033 -0.1532500088
C  0.8624100089 1.1150801182 0.3016400039
C  -0.5077100396 1.0551199913 -0.3031900227
H  -2.6517500877 1.3201601505 0.2494700104
H  -1.6022801399 0.8124700785 1.6417300701
H  -1.7366200686 -0.5922100544 -1.1488500834
H  -0.2550700307 -1.2671700716 1.3922401667
H  -0.7479300499 -2.3473200798 0.0813000128
H  1.7408502102 -1.9885201454 0.0961700082
H  1.0110501051 -1.4149900675 -1.4008001089
H  0.8223400712 1.0709900856 1.3962202072
H  1.3523801565 2.0572102070 0.0364300050
H  -0.5905100703 1.6346201897 -1.2135701180
