16

O  2.2440102100 -0.3626900017 -1.3871901035
C  2.3845500946 0.0428300016 -0.0321700014
C  3.1520702839 1.3487000465 0.0041000000
C  2.4155199528 2.6151003838 -0.5109699965
C  3.1261301041 3.3957302570 0.6133600473
C  3.2244803905 2.0608301163 1.3804301023
H  1.7561501265 -1.2038500309 -1.3836400509
H  2.9276502132 -0.7379700541 0.5088300109
H  1.3871301413 0.1468500197 0.4060400426
H  4.1487002373 1.2380000353 -0.4491600394
H  1.3254301548 2.5836603642 -0.4011600018
H  2.6614701748 2.9251003265 -1.5299001932
H  4.0979404449 3.8077602386 0.3185900450
H  2.5365800858 4.1793704033 1.0950900316
H  4.1473903656 1.9077601433 1.9460101128
H  2.3682801723 1.8703202009 2.0380702019
