12

O  2.0359001160 -0.8515800238 -0.6276700497
C  2.1110601425 0.1138700023 0.1294900179
C  3.0727903843 1.2613601685 -0.0589000061
C  3.4772903919 1.4826200008 -1.4922400713
C  3.3594102859 2.9541501999 -1.5306701660
N  2.7650802135 3.4985604286 -0.5260600448
O  2.3866300583 2.4522502422 0.3448800147
H  1.5238001347 0.1369400173 1.0632101297
H  3.9322204590 1.1160701513 0.6043100357
H  2.8022501469 1.0499501228 -2.2355701923
H  4.5003900528 1.1617301702 -1.6998101473
H  3.7376601696 3.5255503654 -2.3900201321
