13

N  2.7735900879 -0.6753300428 -1.2817400694
C  2.3112001419 0.0438100025 -0.0916500017
C  2.9353902340 1.3978101015 -0.0040300004
N  2.2205100060 2.4341602325 0.4603200257
O  3.0710904598 3.5244004726 0.4323700368
C  4.2844505310 3.1374104023 -0.0279900022
C  4.2599802017 1.7984400988 -0.3116600215
H  2.2537200451 -1.5485401154 -1.3534801006
H  3.7488303185 -0.9379100204 -1.1564701796
H  2.5580801964 -0.5350100398 0.8053900599
H  1.2200001478 0.1340700090 -0.1394200027
H  5.0314002037 3.9139401913 -0.0904700086
H  5.0689806938 1.1979901791 -0.6963600516
