15

C  2.6975800991 -1.1859301329 -0.2933800220
O  2.1898100376 0.1111100018 -0.0185900014
C  3.2089900970 1.0971599817 0.0063100006
C  2.7275502682 2.2683701515 0.8118700981
C  2.6820101738 3.3691103458 0.0434300043
C  3.0919702053 3.0279703140 -1.2957201004
C  3.3873302937 1.7203601599 -1.3489400148
H  1.8572601080 -1.8851802349 -0.3206700385
H  3.3858304024 -1.5026600361 0.4964500368
H  3.2015104294 -1.2105500698 -1.2642701864
H  4.1514301300 0.7141700983 0.4146300256
H  2.4540901184 2.2133700848 1.8533401489
H  2.3643503189 4.3530302048 0.3524800241
H  3.1233403683 3.7259602547 -2.1181602478
H  3.7055504322 1.1853500605 -2.2291603088
