17

C  1.0036201477 0.1261700094 -0.1536100060
O  2.4182102680 0.0695500001 -0.2841300070
C  3.0776400566 1.2653402090 -0.1922000200
C  4.4044103622 1.3716400862 -0.3030200303
C  4.8612504005 2.7782001495 -0.1192800030
C  3.5584301949 3.5739803314 -0.2007600218
C  2.4267203808 2.5830001831 0.0837900117
H  0.6186600924 -0.8963400722 -0.2096100152
H  0.5594900846 0.6984900236 -0.9742700458
H  0.7122000456 0.5439500809 0.8153800964
H  5.0702500343 0.5374600291 -0.4722100198
H  5.3454604149 2.8970503807 0.8553200960
H  5.5599904060 3.0854201317 -0.9028000832
H  3.4413101673 3.9868803024 -1.2114400864
H  3.5488703251 4.4198303223 0.4944600463
H  1.5728100538 2.7880702019 -0.5679100752
H  2.1059701443 2.6425502300 1.1293200254
