15

C  1.0313301086 -0.0855200067 -0.0517000034
C  2.5047900677 0.1125800088 -0.0665300041
O  3.1403100491 -0.2666600049 -1.2932502031
C  3.1466701031 1.1339900494 -0.9740000367
C  4.4827003479 1.7069301605 -0.6305300593
C  5.0227603912 2.2021603584 -1.9026201963
C  5.4729800224 2.6091401577 -2.9380102158
H  0.5744100213 0.5544300675 0.7092400193
H  0.7931000590 -1.1260200739 0.1893900037
H  0.5741200447 0.1537300050 -1.0174400806
H  2.9851601124 -0.1621199995 0.8625701070
H  2.5005400181 1.8018901348 -1.5303400755
H  5.1483001709 0.9582000971 -0.1883200109
H  4.3649306297 2.5262300968 0.0855500028
H  5.8724303246 2.9640002251 -3.8608303070
