16

O  1.2461501360 0.0740600079 0.7342400551
N  2.3749899864 -0.0001700000 -0.0887800008
C  2.9617102146 1.1520401239 -0.1701200157
C  2.5363202095 2.4274902344 0.5067700148
C  3.2874202728 3.4596903324 -0.3231100142
C  4.5914101601 2.7687404156 -0.7054900527
C  4.1982703209 1.3283500671 -1.0109701157
H  0.8769400716 -0.8261300921 0.6622900367
H  2.8889303207 2.4117701054 1.5434001684
H  1.4567000866 2.5834403038 0.4766700268
H  2.7146902084 3.7003803253 -1.2272400856
H  3.4561402798 4.3892502785 0.2280800045
H  5.0779304504 3.2492902279 -1.5594800711
H  5.2900099754 2.7961204052 0.1392700076
H  3.9361102581 1.1944800615 -2.0646800995
H  4.9774703979 0.6170900464 -0.7263100743
