17

N  1.0042001009 0.1163300052 0.1728100032
C  2.4478201866 -0.0482500046 0.0289000012
C  2.8167700768 -1.4466900826 -0.4577400386
C  2.8298401833 -1.3301100731 -1.9795202017
N  3.3219401836 0.0309200026 -2.2760100365
C  2.2655401230 1.0308700800 -2.3774902821
C  2.9807801247 0.8313800693 -1.0675600767
H  0.8071500063 1.0601201057 0.5033600330
H  0.6622400284 -0.5171000361 0.8937900662
H  2.9354202747 0.1675100029 0.9855200648
H  2.1446902752 -2.2317101955 -0.0984600112
H  3.8284301758 -1.6930400133 -0.1061700135
H  3.5035700798 -2.0756702423 -2.4143202305
H  1.8324100971 -1.5067001581 -2.3996100426
H  2.5089900494 1.9142901897 -2.9555602074
H  1.2409701347 0.6959000230 -2.4863600731
H  3.7365102768 1.5380800962 -0.7525200248
