20

C  0.8061000705 -0.6006600261 0.7904100418
C  2.1265101433 -0.5883100629 0.0146800010
C  2.2712199688 -1.8951601982 -0.7675700188
N  2.1324801445 0.5887800455 -0.8639600277
C  3.4339501858 0.8361400962 -1.4785901308
C  3.3471102715 2.0796601772 -2.3097801208
C  4.1277604103 3.1578903198 -2.1556503773
H  0.6940700412 0.3071500063 1.3939900398
H  0.7662701011 -1.4562801123 1.4737001657
H  -0.0558300056 -0.6686300635 0.1166200042
H  2.9413702488 -0.5127600431 0.7455500960
H  1.5160400867 -1.9740401506 -1.5574601889
H  2.1512601376 -2.7583601475 -0.1037100106
H  3.2591500282 -1.9812401533 -1.2305401564
H  1.8849401474 1.4134001732 -0.3162000179
H  3.7158904076 0.0140100010 -2.1442801952
H  4.2107701302 0.9355800748 -0.7113300562
H  2.5959901810 2.0804002285 -3.0974102020
H  4.8949804306 3.2031803131 -1.3899000883
H  4.0096702576 4.0220904350 -2.8018901348
