17

C  2.1238601208 -0.6604100466 1.4522001743
C  2.6052100658 -0.1680600196 0.0936800092
C  3.0093801022 1.2918001413 0.1083500013
C  1.8720301390 2.2746202946 0.2171700299
C  4.3067402840 1.6364601851 0.0000000000
C  4.7760701180 2.9618101120 0.0000000000
C  5.1733503342 4.0837101936 0.0000000000
H  1.8957800865 -1.7300001383 1.4042201042
H  1.2146500349 -0.1407800168 1.7683901787
H  2.8894600868 -0.5117100477 2.2201402187
H  1.8169802427 -0.3198000193 -0.6545200348
H  3.4467902184 -0.7972800732 -0.2245300263
H  1.1279201508 2.0777001381 -0.5625800490
H  2.1869101524 3.3159303665 0.1027500033
H  1.3819601536 2.1869401932 1.1923800707
H  5.0632700920 0.8603100777 -0.0850300044
H  5.5268607140 5.0882701874 0.0002400000
