18

C  1.0350100994 -0.0701200068 -0.0512500033
C  2.5264701843 0.0650300086 -0.0092300009
C  3.4373903275 -0.5887800455 -1.0934400558
C  4.5146002769 -0.3110800087 0.0055000004
C  3.3914802074 -0.7433500886 1.0048900843
N  4.5387601852 1.1661701202 0.1067300066
C  3.1012701988 1.4690902233 0.1091300100
H  0.5751600266 0.3395100236 0.8542600274
H  0.7345500588 -1.1203000546 -0.1305500120
H  0.6142500639 0.4613700211 -0.9121100307
H  3.5471203327 -0.0543700047 -2.0429100990
H  3.2421703339 -1.6459001303 -1.3104400635
H  5.4647903442 -0.8414500952 -0.0160300005
H  3.1909701824 -1.8203001022 1.0558700562
H  3.4594101906 -0.3545200229 2.0261301994
H  4.9612302780 1.5119501352 0.9678400755
H  2.8355901241 2.1045601368 -0.7423600554
H  2.7978701591 1.9635401964 1.0387201309
