15

C  0.9938100576 0.0697299987 -0.0047100000
N  2.4350600243 -0.0213300008 -0.0049500004
N  3.1621201038 1.1126201153 -0.0074900007
C  4.4247303009 0.6842500567 -0.0077200006
C  4.5111904144 -0.7174400687 -0.0053800005
C  3.2032403946 -1.1590901613 -0.0040800003
C  2.6654803753 -2.5412001610 -0.0019800002
H  0.6921500564 1.1203401089 0.0001300000
H  0.6165200472 -0.4266600311 0.8929600716
H  0.6171100736 -0.4187100530 -0.9071900845
H  5.2266502380 1.4104801416 -0.0096300012
H  5.4045104980 -1.3262100220 -0.0054900004
H  1.5724101067 -2.5704901218 0.0175800025
H  3.0295600891 -3.0863902569 0.8746700883
H  2.9979703426 -3.0757703781 -0.8980100751
