17

C  1.4677901268 -0.4135500193 -0.4384700358
N  2.8853302002 -0.0784100071 -0.4158200324
C  3.1053102016 1.2347201109 0.2309400141
C  4.6096100807 1.6411801577 0.2586800158
N  5.4456906319 0.5197800398 0.7057900429
C  5.0626301765 2.0653500557 -1.0786401033
C  5.4373607635 2.4072802067 -2.1689400673
H  1.3292400837 -1.3754200935 -0.9417400360
H  0.8843000531 0.3372200429 -0.9811700583
H  1.0703401566 -0.5123100281 0.5766900182
H  3.2314701080 -0.0223500021 -1.3761600256
H  2.7504301071 1.1726500988 1.2676000595
H  2.5217001438 2.0115401745 -0.2792800069
H  4.7357101440 2.4756703377 0.9579900503
H  5.1672902107 -0.2807400227 0.1299700141
H  5.1351504326 0.2510500252 1.6383101940
H  5.7837104797 2.7044103146 -3.1310203075
