16

C  0.5952000618 0.2567000091 -0.2273400128
C  2.0727901459 0.1305400133 0.1030700132
C  2.7947702408 1.4629900455 0.0248800013
O  2.2309203148 2.5237102509 -0.2380100191
N  4.1467103958 1.4385101795 0.2287000269
O  4.7019104958 0.3183700144 0.8808701038
C  5.6975007057 -0.2406900227 0.0271100011
H  0.1002200022 -0.7152200341 -0.1404600143
H  0.4518800378 0.6238600612 -1.2490000725
H  0.0971600041 0.9559100866 0.4527100325
H  2.5434801579 -0.5685200691 -0.5968200564
H  2.1786301136 -0.2657100260 1.1190500259
H  4.5820302963 2.3361401558 0.4145800471
H  6.0769906044 -1.1541701555 0.4925800562
H  6.5271801949 0.4633500576 -0.0922600105
H  5.2735505104 -0.4946500659 -0.9498000741
