17

C  0.8151500821 0.5638700128 -0.3378200233
N  2.2365901470 0.3384500146 -0.4299000204
C  3.1696803570 1.3117301464 -0.2343300283
N  3.0261502266 2.5805401802 -0.3444800079
C  4.5159106255 0.8135800958 0.1315000057
C  5.2518701553 1.4040501118 1.3118201494
C  4.7136006355 0.0082100006 1.3965401649
H  0.2785500288 -0.3613300025 -0.5687900782
H  0.4867100418 1.3270601034 -1.0508201122
H  0.5400100350 0.8762701154 0.6737600565
H  2.5245702267 -0.5943500400 -0.1522500217
H  2.0703301430 2.7910702229 -0.6301700473
H  5.1282405853 0.5499800444 -0.7257200480
H  4.7557902336 2.1845500469 1.8781101704
H  6.3225307465 1.5408500433 1.2164100409
H  5.4228801727 -0.8106700778 1.3693201542
H  3.8651103973 -0.1557500064 2.0503702164
