17

C  1.0009500980 -0.0535400026 0.0032200003
C  2.5200002193 0.0000000000 0.0000000000
C  3.0020201206 1.3611700535 0.0000000000
C  3.3993003368 2.4830701351 0.0000000000
C  3.8813202381 3.8442401886 0.0000000000
C  2.7302801609 4.7988805771 -0.1351300180
C  2.3992102146 5.7256307602 0.7744100094
H  0.6571300626 -1.0928001404 0.0031300001
H  0.5851200819 0.4422800243 -0.8808500171
H  0.5889200568 0.4408600330 0.8898500800
H  2.8954002857 -0.5327900648 -0.8808800578
H  2.8991801739 -0.5341300964 0.8784500360
H  4.5687804222 4.0053200722 -0.8380400538
H  4.4485502243 4.0452704430 0.9161601067
H  2.1400601864 4.7234702110 -1.0465300083
H  2.9544303417 5.8423504829 1.6999800205
H  1.5527901649 6.3858108521 0.6104200482
