15

C  1.0974299908 -0.1024300084 0.2555600107
C  2.5658702850 0.0594200045 -0.1335600019
C  3.3059303761 1.1273400784 0.7023300529
C  3.9828402996 -0.0533800051 1.3872700930
O  3.3578703403 -0.9970600605 0.4919500351
C  2.7654502392 0.1266400069 -1.6987900734
O  2.2014901638 -0.5422800779 -2.5653603077
H  0.9747200608 -0.1888200045 1.3407300711
H  0.6702600718 -1.0029700994 -0.1984800100
H  0.5108000636 0.7588200569 -0.0814200118
H  2.6830000877 1.7443501949 1.3560501337
H  3.9906103611 1.7725300789 0.1443900019
H  5.0728402138 -0.0785800070 1.3046801090
H  3.6830403805 -0.2285300195 2.4242601395
H  3.4972603321 0.8869900703 -2.0202901363
