16

C  1.2147401571 -0.0375699997 -0.9181400537
C  2.0180401802 -0.5206500292 0.2582400143
C  1.9634801149 -1.8008402586 0.6551800370
N  2.8283102512 0.3559700251 0.9517500401
C  3.0221202374 1.7043501139 0.6936100721
C  3.9889602661 2.3365602493 1.6622000933
O  2.5136101246 2.3542900085 -0.2128100246
H  1.8709100485 0.3441900313 -1.7069001198
H  0.5151200294 0.7481100559 -0.6150300503
H  0.6184700727 -0.8438800573 -1.3601901531
H  1.3381201029 -2.5217401981 0.1362600178
H  2.5316901207 -2.1757802963 1.4996800423
H  3.3432102203 -0.0297000017 1.7346001863
H  3.7359602451 2.0595800877 2.6895301342
H  3.9334404469 3.4255702496 1.5763701200
H  5.0056900978 2.0092501640 1.4291701317
