17

C  1.0032401085 -0.0830200016 0.1201900095
C  2.4980702400 0.0067400006 0.1006900072
C  3.1489303112 1.1622000933 -0.1149300113
C  4.6415901184 1.2635201216 -0.1173200086
C  5.3003702164 -0.0440600030 0.3066600263
C  4.4888305664 -1.2258701324 -0.2004400045
O  3.1430602074 -1.1974800825 0.2903800011
H  0.6729100347 -1.1022701263 -0.1031200141
H  0.5568300486 0.5769800544 -0.6310200095
H  0.6170800328 0.1928300112 1.1066401005
H  2.5900502205 2.0790801048 -0.2805100083
H  4.9688801765 1.5347801447 -1.1277301311
H  4.9616703987 2.0692901611 0.5532400608
H  6.3286604881 -0.0898100063 -0.0674800053
H  5.3455300331 -0.0819800049 1.4020700455
H  4.9420399666 -2.1619100571 0.1422400177
H  4.4670701027 -1.2561000586 -1.2970700264
