16

O  2.5176801682 -1.1924101114 -0.6864700317
C  1.7073501348 -0.3456799984 0.1286500096
C  2.2309601307 1.0930500031 0.0582600012
N  3.5746603012 1.1675000191 0.6439500451
C  4.1738400459 2.4783701897 0.4258200526
C  5.5188608170 2.5086503029 1.0141301155
C  6.6197304726 2.5334403515 1.4946900606
H  2.2184300423 -2.1035401821 -0.5244500637
H  1.7248800993 -0.7218600512 1.1571800709
H  0.6801300645 -0.3913000524 -0.2464200258
H  1.5492202044 1.7556501627 0.6021800637
H  2.2645201683 1.4041601419 -0.9929700494
H  4.1514205933 0.4565300345 0.1869400144
H  3.5584001541 3.2566304207 0.8933100700
H  4.2406902313 2.7006502151 -0.6451800466
H  7.5931701660 2.5496203899 1.9267802238
