17

C  1.9485701323 -0.7094400525 1.3117500544
C  2.9074902534 -0.0783700123 0.3514299989
N  3.6344404221 0.9283100963 0.7142900825
N  4.4544701576 1.3740800619 -0.2646400034
C  5.1658802032 2.5345301628 0.2828500271
C  5.7705607414 3.5325801373 -0.6663100719
C  4.5663104057 3.9070203304 0.1477600187
H  2.2493400574 -1.7465301752 1.4798500538
H  0.9489900470 -0.7020100355 0.8702500463
H  1.9349501133 -0.1722000092 2.2628901005
H  2.9604802132 -0.5206400156 -0.6604300737
H  5.1257600784 0.6572700739 -0.5511299968
H  5.7282304764 2.3358402252 1.1931900978
H  5.6309304237 3.3869702816 -1.7308601141
H  6.7227001190 3.9732501507 -0.3961200416
H  4.6970601082 4.5927901268 0.9758000374
H  3.6116602421 3.9950602055 -0.3572400510
