17

C  1.7999701500 1.5620201826 -1.4225801229
C  3.0691001415 1.0675700903 -0.7579700947
O  3.9755103588 2.1642601490 -0.6505400538
C  5.1765503883 1.7941801548 0.0280900020
C  6.0809106827 3.0087502003 0.1093500108
C  5.4698505402 4.0209002495 1.0364401340
O  6.0269804001 4.4188504219 2.0558502674
H  1.0697100163 0.7539200187 -1.5199100971
H  2.0167901516 1.9652302265 -2.4172401428
H  1.3524501324 2.3745601177 -0.8404300809
H  3.5231702328 0.2726800144 -1.3595100641
H  2.8376600742 0.6776000857 0.2392600179
H  5.6777105331 1.0007801056 -0.5376200676
H  4.9332804680 1.4215601683 1.0300300121
H  6.2017402649 3.4847202301 -0.8686600924
H  7.0662608147 2.7278501987 0.4945800304
H  4.4848904610 4.4190001488 0.7382100821
