17

C  0.9920900464 -0.0308300033 0.0114400005
C  2.5200002193 0.0000000000 0.0000000000
C  3.0592103004 -0.7632200718 -1.2088401318
C  3.0020201206 1.3611700535 0.0000000000
C  3.3993003368 2.4830701351 0.0000000000
C  3.8686304092 3.8084201813 0.0000000000
C  3.0298502445 4.8495602608 -0.0006100000
H  0.5963900685 0.4891700447 0.8908900619
H  0.6240200400 -1.0616701841 0.0377300009
H  0.5738500357 0.4559300244 -0.8768500686
H  2.8754003048 -0.5064400434 0.9059100747
H  2.7308101654 -0.3085800111 -2.1505601406
H  2.7161903381 -1.8031601906 -1.1973600388
H  4.1550502777 -0.7717500925 -1.2102200985
H  4.9417605400 3.9741401672 0.0004300000
H  1.9523701668 4.7145800591 -0.0010800001
H  3.4093501568 5.8658204079 -0.0006600001
