17

C  1.9902701378 -0.3794200420 1.3962701559
C  2.5103702545 0.0386200026 0.0282200016
C  3.0848603249 1.4159901142 0.0328900032
C  4.3742203712 1.7750301361 -0.1023100093
C  4.4953503609 3.2700002193 -0.0653500035
C  3.0658802986 3.6917202473 0.1007500067
C  2.2756702900 2.6101300716 0.1518200189
H  1.6046501398 -1.4032200575 1.3554500341
H  1.1763501167 0.2719400227 1.7318102121
H  2.7855801582 -0.3477600515 2.1487600803
H  1.6992801428 -0.0199500006 -0.7072400451
H  3.2726602554 -0.6817200780 -0.2927200198
H  5.2082004547 1.1002701521 -0.2231700271
H  4.9157900810 3.6557202339 -0.9984600544
H  5.1063404083 3.5970203876 0.7807800770
H  2.7335102558 4.7164502144 0.1652000099
H  1.2016401291 2.6115002632 0.2632700205
