17

C  2.2922999859 -0.2944000363 -1.5844000578
C  2.4682703018 0.1168100014 -0.1320100129
C  3.1725604534 1.4574801922 0.0246800017
C  2.4156002998 2.6464602947 -0.5204200149
O  3.0036702156 3.7491402626 0.1687600166
C  3.3923902512 3.2102503777 1.4353400469
O  3.3110601902 1.7820401192 1.4122802019
H  1.8303501606 -1.2845799923 -1.6417400837
H  3.2573802471 -0.3399600387 -2.0971801281
H  1.6481900215 0.4075300395 -2.1207602024
H  3.0436902046 -0.6532400846 0.3982600272
H  1.4906600714 0.1459400207 0.3664200306
H  4.1833701134 1.4145201445 -0.4015400410
H  1.3511900902 2.6157402992 -0.2636900246
H  2.5238301754 2.7730801105 -1.6006901264
H  4.4202604294 3.5146102905 1.6544401646
H  2.7291703224 3.5941901207 2.2163200378
