12

C  -1.3413701057 0.6711300611 0.2457100153
O  -1.4850600958 -0.7405800223 0.4169300199
C  -0.3430400193 -1.4863101244 0.4371900260
C  0.9399000406 -1.1171200275 0.3323800266
C  1.4273700714 0.2752500474 0.2055600137
N  0.8392300606 1.3148801327 -0.2910000086
O  -0.4375000298 1.0181901455 -0.8063800335
H  -2.3250501156 1.0642100573 -0.0291800015
H  -1.0615700483 1.1387301683 1.1991901398
H  -0.6155100465 -2.5311403275 0.5477400422
H  1.7201701403 -1.8694602251 0.3761500418
H  2.4503002167 0.4230900407 0.5919800401
