16

O  1.2743601799 0.1046100110 0.6844700575
C  2.6168200970 0.0431900024 0.1936000139
C  2.8498604298 -1.3083100319 -0.4724300206
C  2.4372901917 -1.0592100620 -1.8924801350
C  3.3603303432 -0.3822200298 -2.8630602360
N  2.3330800533 0.3921200335 -2.1694600582
C  2.8154301643 1.0615500212 -0.9354801178
H  0.6969700456 0.1319800168 -0.1025400087
H  3.2898304462 0.2113100141 1.0388801098
H  2.2500202656 -2.1042201519 -0.0197400022
H  3.9079704285 -1.5904201269 -0.4357200563
H  1.6242702007 -1.6731001139 -2.2522902489
H  4.3993501663 -0.2278500050 -2.5975403786
H  3.1882503033 -0.5430500507 -3.9212403297
H  3.8688602448 1.3521901369 -1.0289701223
H  2.2234899998 1.9666601419 -0.7637700438
