14

C  3.3760702610 -1.9551601410 -0.4400600195
O  2.5150001049 -0.8267500401 -0.4920500219
C  3.1316902637 0.3348500133 0.0679800063
O  4.2692103386 0.7419600487 -0.6894900799
C  4.9648003578 1.8296802044 -0.2471500188
C  4.7372102737 2.6037201881 0.8214100599
H  2.8207502365 -2.8267502785 -0.7966200709
H  3.7034502029 -2.1486201286 0.5861099958
H  4.2430901527 -1.8103301525 -1.0917000771
H  3.4058003426 0.1245500073 1.1095000505
H  2.3775901794 1.1299400330 0.0489000045
H  5.7971501350 2.0148901939 -0.9181100726
H  3.9142103195 2.4483301640 1.5072201490
H  5.3978304863 3.4398801327 1.0303300619
