14

C  1.0000001192 0.0000000000 0.0000000000
C  2.4440002441 0.0000000000 0.0000000000
C  3.6341602802 0.0000000000 0.0000000000
C  5.0667800903 -0.0179900005 0.0408000052
C  5.8126106262 -0.7412500381 -1.0483300686
C  5.8369007111 0.7589900494 -0.9939801097
H  0.6059600711 1.0208600760 0.0116300005
H  0.6059200764 -0.5205400586 0.8782400489
H  0.6060100794 -0.5003200173 -0.8899500370
H  5.4998302460 -0.0616000034 1.0364900827
H  5.2470002174 -1.2112100124 -1.8456500769
H  6.7137007713 -1.2773201466 -0.7714000344
H  6.7542605400 1.2418000698 -0.6799800396
H  5.2871904373 1.3030301332 -1.7525200844
