13

C  0.9119100571 0.0138000008 -0.0008200001
C  2.2439901829 -0.0049800002 0.0011700001
O  3.0339202881 1.1367501020 0.0054600006
C  4.3585600853 0.7210800648 0.0082200002
C  5.3981003761 1.5542300940 0.0142800016
C  4.3769502640 -0.7151200771 0.0042800005
C  3.1119203568 -1.1495200396 0.0001500000
H  0.3771200180 0.9572800994 0.0005800001
H  0.3304300308 -0.9007700682 -0.0035200003
H  6.4187707901 1.1898400784 0.0168600027
H  5.2404899597 2.6272401810 0.0171800014
H  5.2643804550 -1.3265600204 0.0049400004
H  2.7874400616 -2.1772902012 -0.0031600003
