18

N  1.8274401426 -0.0574800037 1.3225500584
C  2.2707400322 0.1954600215 -0.0406200029
C  3.2875802517 1.2877501249 0.0068600005
C  3.3551204205 2.3241002560 -1.0905001163
C  2.8713402748 2.7156503201 0.2830800414
C  3.7053904533 3.5632803440 1.1822301149
O  3.2765402794 4.9129104614 1.0677001476
H  1.1105600595 -0.7827200890 1.3097200394
H  1.3681601286 0.7798801064 1.6827601194
H  1.4140601158 0.4638300538 -0.6665400863
H  2.7210400105 -0.7110300660 -0.4545000196
H  4.2265305519 0.9392900467 0.4264500141
H  2.6233100891 2.2831902504 -1.8903801441
H  4.3378300667 2.6498703957 -1.4130800962
H  1.8129501343 2.9137103558 0.4171100259
H  4.7702703476 3.5140502453 0.9345601201
H  3.5796601772 3.2525200844 2.2228903770
H  3.3552203178 5.1499805450 0.1273400038
