8

O  1.0003000498 -0.0021700000 -0.0115000000
C  2.4200003147 0.0000000000 0.0000000000
C  2.9020202160 1.3611700535 0.0000000000
C  3.2993004322 2.4830701351 0.0000000000
H  0.7230600119 -0.9316900969 -0.0106000006
H  2.7724204063 -0.5414500237 -0.8832700849
H  2.7580301762 -0.5363100171 0.8919800520
H  3.6438202858 3.4915101528 -0.0001100000
