16

N  0.9734200835 0.0145800011 -0.0387400016
C  2.4268400669 -0.0081100008 0.0143700009
C  3.0337202549 1.0710400343 0.9101001024
O  4.3602800369 0.6101200581 1.2068800926
C  4.2628202438 -0.8162600994 1.3631200790
C  3.0181801319 -1.2329601049 0.6377500892
C  2.5218601227 -2.4795601368 0.6412300467
H  0.6590400338 -0.6824800372 -0.7108600736
H  0.6629200578 0.9143100381 -0.4006600082
H  2.8384802341 0.0963600054 -0.9974600673
H  2.4894101620 1.1924401522 1.8551901579
H  3.0877501965 2.0441300869 0.4117500186
H  5.1622705460 -1.2705000639 0.9384800792
H  4.1994900703 -1.0407900810 2.4328401089
H  1.5957901478 -2.7241501808 0.1321500093
H  3.0293402672 -3.2858901024 1.1617400646
