18

C  0.9342901111 0.0308800023 -0.0098100016
C  2.4663202763 0.0175800025 0.0218100026
C  3.0294103622 0.1215400100 -1.3993500471
N  2.9242300987 -1.2376301289 0.6711100340
C  3.4104902744 -0.8754100800 2.0155801773
C  3.5227601528 0.6049300432 2.0123403072
C  2.9948902130 1.1091700792 0.8969300389
H  0.5050900578 -0.0489300042 0.9961000681
H  0.5434000492 -0.8034400940 -0.6029900312
H  0.5577600002 0.9594700336 -0.4535400271
H  4.1261301041 0.1226100102 -1.4037200212
H  2.6995000839 1.0462900400 -1.8873401880
H  2.6954400539 -0.7178300023 -2.0211501122
H  3.7217202187 -1.5995401144 0.1502799988
H  4.3786902428 -1.3459800482 2.2139003277
H  2.6960003376 -1.2050501108 2.7775900364
H  3.9456102848 1.1836301088 2.8202102184
H  2.9237802029 2.1612100601 0.6652000546
