15

C  -1.6368401051 0.7069500685 0.6414099932
C  -1.0202001333 -0.2780300379 -0.3271100223
C  0.0203500018 -1.2414602041 0.0275400020
N  1.3110401630 -1.2517600060 -0.6524500251
C  1.0974700451 -0.2742699981 0.4211400151
C  0.7372900844 1.1431801319 0.1556100100
N  -0.6298000813 1.0766700506 -0.3485100269
H  -2.6399500370 1.0574901104 0.4373500347
H  -1.3522901535 0.6863800883 1.6829001904
H  -1.6682502031 -0.5939200521 -1.1420601606
H  -0.2085400224 -2.0690500736 0.6858900189
H  1.8788701296 -2.0363202095 -0.3316200078
H  1.6715401411 -0.4222800136 1.3260401487
H  0.7977700830 1.7494201660 1.0668300390
H  1.4032801390 1.5842801332 -0.5926600099
