17

C  3.1374802589 -1.7215601206 -1.2191501856
C  2.8814201355 -0.8595401049 -0.0151200015
C  2.2450602055 -1.3392000198 1.0667700768
C  3.3295602798 0.5841600895 -0.0932700038
C  4.8473205566 0.7272700667 -0.1589300185
C  5.2835006714 2.1709699631 -0.1706500053
O  4.5223503113 3.1323602200 -0.1422100067
H  2.7287204266 -1.2501100302 -2.1184401512
H  2.6727502346 -2.7085602283 -1.1232501268
H  4.2114005089 -1.8749201298 -1.3617701530
H  1.9048202038 -2.3696300983 1.1174501181
H  2.0380601883 -0.7139700651 1.9308700562
H  2.9514501095 1.1445101500 0.7724000216
H  2.8694601059 1.0519701242 -0.9730800390
H  5.2463307381 0.2643800378 -1.0678900480
H  5.3200206757 0.2470900118 0.7049700618
H  6.3753404617 2.3258101940 -0.2139000148
