9

N  0.9628000855 -0.1084600016 -0.0041200006
C  2.1225900650 -0.0469600037 -0.0012300002
C  3.5324501991 0.0506700054 0.0022100003
C  4.3908305168 1.1209501028 0.0007600000
N  5.6882305145 0.6685800552 0.0058300006
C  5.5586004257 -0.6404500008 0.0100700008
O  4.2732005119 -1.0952200890 0.0082200002
H  4.1549105644 2.1763601303 -0.0035700004
H  6.3383703232 -1.3901100159 0.0147900013
