15

C  1.4225801229 -0.3891700208 -0.8366800547
O  2.4897701740 -0.2136000246 0.0923900083
C  3.0390000343 1.0635399818 0.0665700063
C  2.0875802040 2.2185301781 0.2247600257
C  4.3755402565 1.1682699919 0.0000000000
C  5.0785403252 2.3859002590 0.0000000000
C  5.6736207008 3.4166102409 0.0000000000
H  1.2021400928 -1.4589101076 -0.8970701098
H  1.7054500580 -0.0415000021 -1.8361401558
H  0.5183100104 0.1221200079 -0.4923000336
H  1.3560801744 1.9987702370 1.0098800659
H  1.5501600504 2.4043703079 -0.7104200721
H  2.5895702839 3.1474001408 0.5104000568
H  4.9649400711 0.2577600181 -0.0670600012
H  6.2068805695 4.3385705948 0.0013200002
