17

C  2.5854902267 -0.4725800455 -1.7625101805
C  3.1090402603 -0.4158900082 -0.3356100321
C  3.7284102440 0.9369400740 0.0237300023
O  4.0368003845 0.9027401209 1.4200900793
C  4.3689603806 2.1864001751 1.9416201115
C  4.9953703880 1.1556301117 -0.7883000374
O  5.1668400764 2.1184201241 -1.5320700407
H  2.1143600941 -1.4426401854 -1.9524202347
H  3.3927402496 -0.3459700346 -2.4909303188
H  1.8372201920 0.3071600199 -1.9376701117
H  3.8416900635 -1.2188301086 -0.1845600158
H  2.2848701477 -0.6300400496 0.3564300239
H  3.0128602982 1.7423300743 -0.1820100099
H  4.4856505394 2.0928699970 3.0242402554
H  3.5723502636 2.9076600075 1.7384802103
H  5.3163304329 2.5381300449 1.5231300592
H  5.7811803818 0.3906700313 -0.6614900231
