11

N  1.0025200844 0.0162500013 -0.0098800007
C  2.3459100723 0.0369200036 -0.0024200000
C  3.0914201736 1.1904901266 0.0011300000
S  4.7735800743 0.8621500731 0.0108500011
C  4.4955201149 -0.8275800347 0.0098000010
C  3.1503801346 -1.1312301159 0.0023200002
H  0.4387100339 0.8602400422 -0.0003000000
H  0.4665900469 -0.8453100324 0.0004800000
H  2.7435901165 2.2133400440 -0.0015300001
H  5.3298306465 -1.5150901079 0.0145800011
H  2.7754302025 -2.1461601257 0.0002700000
