12

C  0.9780200720 -0.0977000073 -0.1593400091
N  2.4153599739 -0.0094700009 0.0740400031
C  2.8994600773 1.4000400305 0.0799200088
C  2.3998301029 2.1823401451 1.2355899811
N  1.9785301685 2.8128302097 2.1164302826
C  4.3805603981 1.4452700615 0.0320500024
N  5.5407805443 1.4697501659 -0.0549500026
H  0.6836700439 -1.1513900757 -0.1960700154
H  0.6968100667 0.3606000245 -1.1130100489
H  0.4051400423 0.3690000474 0.6477000713
H  2.9000504017 -0.5171800256 -0.6676600575
H  2.5420501232 1.8830801249 -0.8396601081
