12

C  2.6770102978 -1.0981301069 0.4042400420
C  2.1931703091 0.1267800182 0.1568000168
C  2.9755802155 1.3091900349 0.0789800063
C  2.5301501751 2.5833902359 -0.1709500104
O  3.6143403053 3.4115402699 -0.1563600004
C  4.6569600105 2.5732500553 0.1046700105
N  4.3351106644 1.3076200485 0.2544300258
H  2.0208001137 -1.9601701498 0.4499200284
H  3.7388103008 -1.2625300884 0.5659200549
H  1.1212201118 0.2276300043 0.0034200002
H  1.5730500221 3.0441102982 -0.3639100492
H  5.6372704506 3.0246601105 0.1628000140
