19

C  1.5134902000 -0.1277800053 0.5558600426
N  2.9267401695 0.2007900178 0.6763200760
C  3.1862800121 1.6501101255 0.6534800529
C  2.5112600327 2.4011201859 1.8041201830
C  4.6882801056 1.8045800924 0.7553600073
C  5.5376000404 1.8818801641 -0.4905000627
N  5.3248405457 3.0595002174 0.3421500325
H  1.4035100937 -1.2128100395 0.4533900321
H  1.0612601042 0.3375900090 -0.3279000223
H  0.9519900680 0.1624000221 1.4474800825
H  3.4220902920 -0.2217800170 -0.1088400111
H  2.8336503506 2.0677900314 -0.2985600233
H  2.7912101746 1.9802801609 2.7764000893
H  1.4204500914 2.3775901794 1.7183601856
H  2.8120203018 3.4550504684 1.8055100441
H  5.1040101051 1.3286300898 1.6375300884
H  5.0533103943 1.9019001722 -1.4588201046
H  6.5276803970 1.4446101189 -0.4715300202
H  6.1409807205 3.2495701313 0.9274400473
