17

O  1.1909600496 -0.0148500009 0.8014600873
C  2.4642503262 0.0293600019 0.1560600102
C  2.5121800900 1.2129900455 -0.8085400462
C  3.8425803185 1.2705401182 -1.5581802130
C  4.2941002846 -0.0707100108 -2.0568201542
C  3.7697103024 -1.2267301083 -1.6265801191
C  2.6996202469 -1.3011701107 -0.5757800341
H  1.0468300581 0.8502801061 1.2209700346
H  3.2267804146 0.1563200057 0.9365500212
H  2.3464903831 2.1507201195 -0.2669200003
H  1.6827901602 1.1343001127 -1.5221400261
H  4.6228804588 1.6767001152 -0.9025300741
H  3.7446503639 1.9594402313 -2.4050900936
H  5.0800104141 -0.0844400078 -2.8086001873
H  4.1206903458 -2.1672401428 -2.0433902740
H  1.7690701485 -1.6468100548 -1.0417200327
H  2.9667601585 -2.0664501190 0.1634600163
