19

C  0.7837300897 -0.0396800041 -0.0688300058
C  2.2921502590 -0.2370400131 0.1033200100
C  2.5662302971 -0.9834100604 1.4130301476
O  2.7596402168 -1.0830200911 -0.9536901116
C  3.0813903809 1.0958300829 0.0961000100
C  2.8984601498 1.9357901812 -1.1446100473
C  3.8815402985 2.2129802704 -2.0118501186
H  0.5410600305 0.3714000285 -1.0540800095
H  0.3757200241 0.6244500875 0.6997200847
H  0.2585800290 -1.0000801086 -0.0083100004
H  2.2311902046 -0.4093000293 2.2827000618
H  3.6362702847 -1.1924000978 1.5256100893
H  2.0609102249 -1.9559800625 1.4228900671
H  2.7041101456 -0.5727699995 -1.7812501192
H  4.1496801376 0.8740701079 0.2210800201
H  2.7828104496 1.7048001289 0.9587200880
H  1.9109401703 2.3573901653 -1.3196301460
H  4.8882203102 1.8318701982 -1.8751201630
H  3.6975903511 2.8379702568 -2.8807501793
