13

N  1.5266401768 -0.6050500870 0.7508600950
C  2.5459301472 -0.2202900201 -0.0807100013
N  2.9222102165 -0.9918900728 -1.0493401289
C  3.2023301125 1.1663100719 0.1571700126
O  2.9738202095 1.5246500969 1.5271401405
C  4.6490101814 1.1765000820 -0.1078800038
C  5.8313207626 1.1923400164 -0.3167900145
H  1.4504301548 -0.0384300016 1.5950900316
H  1.4167200327 -1.5972800255 0.9126001000
H  2.3347504139 -1.8281501532 -1.0606900454
H  2.6802501678 1.8932301998 -0.4728400409
H  3.6811404228 1.0868099928 2.0315902233
H  6.8788003922 1.1997600794 -0.5150600076
