21

C  1.2352000475 -0.2928000391 1.1453701258
C  2.7065801620 -0.3464100361 0.7067300081
C  2.8683602810 -1.4853501320 -0.3078600168
C  3.1953001022 1.0180001259 0.1346300244
N  3.0427701473 2.0978901386 1.1348301172
C  4.6739101410 1.0039000511 -0.3402100205
N  5.6247901917 0.8380800486 0.7680701017
H  1.0906500816 0.3930700123 1.9852001667
H  0.8921000361 -1.2783501148 1.4785101414
H  0.5888700485 0.0291100014 0.3221600056
H  3.3038501740 -0.6040000916 1.5914801359
H  2.3709599972 -1.2466700077 -1.2539300919
H  2.4344801903 -2.4153599739 0.0760300085
H  3.9223902225 -1.6924101114 -0.5145800114
H  2.5751302242 1.2801501751 -0.7320000529
H  3.4535002708 1.7701501846 2.0097901821
H  2.0532002449 2.2381503582 1.3321400881
H  4.8961706161 1.9555401802 -0.8388000727
H  4.8421001434 0.2213600129 -1.0847501755
H  5.4995002747 1.6424701214 1.3856600523
H  6.5713706017 0.9245300293 0.3993300498
