15

C  1.1620701551 -0.1110700071 -0.5880500674
C  2.4615101814 0.0175800025 -0.2911700308
C  3.1854701042 1.2588801384 -0.2889700234
C  4.4752502441 1.4204901457 -0.0056500006
C  4.8224706650 2.8484203815 -0.1686000228
C  3.4418301582 3.4708101749 -0.3424100280
O  2.5048301220 2.4183602333 -0.6436800361
H  0.6823000908 -1.0833400488 -0.5686100125
H  0.5503000617 0.7452900410 -0.8568700552
H  3.0251603127 -0.8746801019 -0.0293600019
H  5.1709203720 0.6412300467 0.2645900249
H  5.3427405357 3.2636802197 0.6988100410
H  5.4447503090 2.9955201149 -1.0571100712
H  3.4273302555 4.2084002495 -1.1514700651
H  3.1120202541 3.9668703079 0.5784700513
