17

C  0.7908500433 0.0753400028 0.1929200143
C  2.1295101643 0.0994700044 0.2303100228
C  3.0156202316 1.3103400469 0.1131300107
C  2.3582401276 2.6792201996 0.0949600115
C  3.5245201588 3.5858602524 0.4235800505
O  4.3681206703 2.8574001789 1.3252000809
C  3.9845004082 1.4724701643 1.2820500135
H  0.2540000379 -0.8654100895 0.2792800069
H  0.1923300177 0.9720800519 0.0722800046
H  2.6499502659 -0.8519300818 0.3388200402
H  3.6038603783 1.2030901909 -0.8088900447
H  1.6009501219 2.7635903358 0.8842101097
H  1.8890300989 2.9296600819 -0.8609100580
H  4.1114602089 3.8187603951 -0.4714400470
H  3.2102901936 4.5241804123 0.8890800476
H  4.8812804222 0.8556900620 1.1663500071
H  3.5190501213 1.2277801037 2.2437300682
