15

N  1.1711701155 0.1112600118 0.1551900059
C  2.4783501625 0.0519000031 -0.2060200274
S  3.1837604046 -1.4342401028 -0.4598100185
N  3.1105403900 1.2484800816 -0.3151900172
C  2.7365002632 2.5891001225 0.1019900069
C  4.0739502907 3.0451302528 -0.4928000271
C  4.5192403793 1.5801601410 -0.4799400568
H  0.6513000131 0.9712700844 0.0668400005
H  0.6460300684 -0.7540700436 0.1656400114
H  2.6478002071 2.6861202717 1.1875400543
H  1.8500901461 2.9870703220 -0.3966800272
H  3.9882903099 3.4748702049 -1.4979100227
H  4.6610803604 3.7215802670 0.1344899982
H  4.9621505737 1.2248800993 -1.4137101173
H  5.1301603317 1.2849701643 0.3780700266
