21

C  1.7696201801 -0.9264400601 -0.4043400288
O  3.0571601391 -0.3399900198 -0.2649700344
C  2.9819002151 1.0849801302 -0.1854600161
C  4.4006500244 1.6289101839 -0.0427900031
C  4.4647402763 3.1530001163 0.1397899985
C  5.9082102776 3.5824003220 0.4141600430
C  3.9243602753 3.9091403484 -1.0749300718
H  1.8910601139 -2.0100800991 -0.4711200297
H  1.2836600542 -0.5717100501 -1.3178601265
H  1.1489499807 -0.6963100433 0.4670600593
H  2.3767201900 1.3695700169 0.6831700206
H  2.5078103542 1.4663001299 -1.0960301161
H  4.9917802811 1.3236300945 -0.9161100388
H  4.8753700256 1.1358101368 0.8159100413
H  3.8607201576 3.4299104214 1.0130300522
H  6.5647902489 3.3306202888 -0.4262400270
H  6.2985606194 3.0872201920 1.3097500801
H  5.9692106247 4.6639299393 0.5792300105
H  4.4500303268 3.6168401241 -1.9904800653
H  4.0464005470 4.9900102615 -0.9460800886
H  2.8564903736 3.7197904587 -1.2190101147
