16

C  1.0935200453 0.0714200065 -0.3996400237
C  2.3696100712 -0.1730300039 0.3287500143
C  3.5065302849 -0.9928300977 -0.2214500159
C  3.6910202503 -1.2151300907 -1.6501301527
C  3.8640701771 -0.0725000054 -2.3209600449
C  3.7821900845 1.0698400736 -1.3540800810
N  3.6346602440 0.4832600355 0.0061200005
H  0.6883700490 1.0508400202 -0.1253300011
H  0.3563600183 -0.6850900054 -0.1104600057
H  1.1818101406 0.0360100009 -1.4884201288
H  2.1781001091 -0.2629400194 1.3942301273
H  4.0867805481 -1.6084600687 0.4557500482
H  3.6959903240 -2.2005403042 -2.0954401493
H  4.0231304169 0.0283000022 -3.3825702667
H  4.7129006386 1.6459801197 -1.3877201080
H  2.9556400776 1.7464101315 -1.5947401524
