15

C  2.2929701805 -0.5630000830 -1.3991501331
C  2.4686901569 -0.0078100003 0.0055300002
C  3.0201001167 1.3763401508 0.0035500003
C  2.3093302250 2.5595703125 -0.0116300005
O  3.1469101906 3.6273303032 -0.0079000005
C  4.4111003876 3.1360101700 0.0107800001
C  4.3912806511 1.7614201307 0.0191300008
H  1.8878401518 -1.5790600777 -1.3579400778
H  3.2487502098 -0.5992700458 -1.9335201979
H  1.6040900946 0.0544800051 -1.9859801531
H  3.1357700825 -0.6665200591 0.5740300417
H  1.5019901991 -0.0182800014 0.5225400329
H  1.2548002005 2.7970402241 -0.0262100026
H  5.1999902725 3.8745503426 0.0160800014
H  5.2568502426 1.1140900850 0.0336900055
