13

C  1.1104800701 0.0269100014 -0.1470600218
N  2.5588600636 -0.0142200002 0.0422000028
C  3.2559602261 -0.7526000142 -1.0048900843
C  3.2931602001 0.7569400668 -0.9648400545
C  4.5017604828 1.4426201582 -0.4597900212
O  5.3552904129 1.8574100733 -1.2348500490
H  0.7002300620 0.9076300859 0.3583800495
H  0.6562600136 -0.8588700891 0.3081600368
H  0.7925100923 0.0648000091 -1.1966800690
H  2.6755702496 -1.2331801653 -1.7834200859
H  4.1393203735 -1.2987800837 -0.6949300766
H  2.7319302559 1.2997301817 -1.7162300348
H  4.5903806686 1.5729601383 0.6326701045
