17

C  0.9577400684 -0.0020300001 0.1108900085
C  2.4712901115 -0.0119300010 0.0187300015
C  3.1212503910 1.1641300917 0.7741900682
C  4.4471306801 0.6050500870 1.2954400778
N  4.1049804688 -0.7723200321 1.5570801497
C  3.1157903671 -1.1919900179 0.7202700973
N  2.8406400681 -2.4258401394 0.4905400574
H  0.5270300508 -0.8265900612 -0.4669100344
H  0.5501600504 0.9347100258 -0.2829800248
H  0.6175500751 -0.1178000122 1.1459900141
H  2.7958402634 -0.0178000014 -1.0279700756
H  2.4958901405 1.4692600965 1.6233100891
H  3.2652802467 2.0406401157 0.1351200193
H  5.2271304131 0.6636000276 0.5285000801
H  4.7866401672 1.1204401255 2.1981501579
H  4.8325700760 -1.4502801895 1.7518601418
H  2.0873100758 -2.5030701160 -0.1984800100
