15

C  0.9729701281 -0.0577900037 -0.0093500009
C  2.4399302006 0.0997500047 0.0008600001
C  3.2798101902 1.1921300888 0.0072700004
C  4.6091303825 0.6850800514 0.0161000006
C  5.8717904091 1.4588800669 0.0255300011
C  4.4769306183 -0.6881100535 0.0143700009
O  3.1692600250 -1.0493000746 0.0050700004
H  0.4732900560 0.9157900214 -0.0015800002
H  0.6416800618 -0.6178300381 0.8704300523
H  0.6522300243 -0.5984700322 -0.9049900770
H  2.9719002247 2.2287101746 0.0058000004
H  5.6768002510 2.5359401703 0.0116600012
H  6.4788103104 1.2130901814 -0.8516401052
H  6.4539504051 1.2312101126 0.9241501093
H  5.1836504936 -1.5064800978 0.0188100003
