17

C  2.4305903912 -0.5089300275 -1.5422401428
C  2.4227902889 0.0403700024 -0.1248200089
C  3.3008801937 1.2797701359 -0.0267000031
C  2.7475802898 2.5893402100 -0.6663000584
C  3.0594503880 3.3865802288 0.6218800545
C  3.2376801968 2.0290300846 1.3258600235
O  3.2961003780 1.6867301464 2.4873802662
H  1.8167101145 -1.4121800661 -1.6029201746
H  3.4471001625 -0.7630200386 -1.8577002287
H  2.0324301720 0.2230100185 -2.2512001991
H  2.7957301140 -0.7310300469 0.5598900318
H  1.3923701048 0.2670400143 0.1751500219
H  4.3425402641 1.0734400749 -0.3073400259
H  1.6777901649 2.5612502098 -0.9059100747
H  3.2890403271 2.9276802540 -1.5552101135
H  3.9808204174 3.9742403030 0.5877100825
H  2.2366700172 3.9928603172 1.0050899982
