13

C  1.0000001192 0.0000000000 0.0000000000
C  2.4440002441 0.0000000000 0.0000000000
C  3.6341602802 0.0000000000 0.0000000000
C  5.0021600723 0.0000000000 0.0000000000
C  6.1923203468 0.0000000000 0.0000000000
C  7.5983204842 0.0000000000 0.0000000000
C  8.3019104004 1.1380301714 -0.0000000000
H  0.6059300303 1.0208500624 0.0116800005
H  0.6059200764 -0.5205400586 0.8782400489
H  0.6059200764 -0.5003100634 -0.8899300694
H  8.1125707626 -0.9566001296 0.0000000000
H  7.8177409172 2.1093802452 -0.0000000000
H  9.3860607147 1.1168200970 -0.0000000000
