11

O  1.2355301380 -0.0316200033 -0.7992900610
C  2.3349201679 -0.0464300029 -0.0100400001
O  2.6933102608 -1.0371400118 0.6037100554
C  3.0710003376 1.2505400181 0.0000000000
C  2.3945500851 2.4083302021 0.0866800100
C  4.4770007133 1.2505400181 0.0000000000
C  5.6671605110 1.2505400181 0.0000000000
H  1.1640900373 0.7637500167 -1.3576000929
H  1.3128200769 2.4463603497 0.1664800048
H  2.9184601307 3.3597602844 0.1320700198
H  6.7325305939 1.2384301424 0.0066300007
