22

C  1.8227200508 0.6670100689 0.0487300009
C  3.0136601925 1.4668000937 0.5607200861
N  4.1964001656 1.1292099953 -0.2269300073
C  5.4469604492 1.8126602173 0.1533700079
C  5.8663702011 1.4741801023 1.5936501026
C  6.5336608887 1.2843000889 -0.8037000299
C  5.3457102776 3.3372104168 -0.0193700008
H  0.9279200435 0.9097000957 0.6319100857
H  2.0010702610 -0.4095100462 0.1375900060
H  1.6110800505 0.8956900835 -1.0015300512
H  3.1586203575 1.2230900526 1.6170500517
H  2.7744500637 2.5319302082 0.4806500375
H  4.0023403168 1.3028600216 -1.2136400938
H  5.1812605858 1.9024702311 2.3325400352
H  6.8638606071 1.8719000816 1.8134602308
H  5.9027204514 0.3905000389 1.7533000708
H  6.2946205139 1.5136501789 -1.8490002155
H  6.6485505104 0.1972900182 -0.7176100612
H  7.5075602531 1.7364401817 -0.5837800503
H  5.0057106018 3.6025803089 -1.0270200968
H  6.3206806183 3.8136003017 0.1344300061
H  4.6522102356 3.7854304314 0.7000200152
