16

C  1.1259701252 1.5431801081 0.2568000257
N  2.2796401978 1.0903000832 -0.0987200066
O  3.2259502411 2.1179900169 0.0463800058
C  4.4963808060 1.6351701021 -0.3960300386
C  5.4829902649 2.7589902878 -0.3309400082
C  6.3277101517 2.9776401520 0.8986700773
C  6.9630303383 2.4751601219 -0.3690100312
H  0.2425000221 0.8878200650 0.2160200179
H  0.9678100348 2.5774002075 0.6068400741
H  4.4106402397 1.2877300978 -1.4320400953
H  4.8029603958 0.7939200401 0.2368400097
H  5.1294307709 3.6324403286 -0.8675701022
H  6.2284307480 2.2852702141 1.7272801399
H  6.5290703773 3.9998602867 1.1987800598
H  7.5945405960 3.1580703259 -0.9264000654
H  7.2952704430 1.4434000254 -0.3955300450
