15

C  1.0108300447 -0.0243800003 -0.2743400335
C  2.4541599751 -0.1965800226 0.0840400085
C  3.0039401054 -1.3884001970 0.3657200336
C  3.2968201637 1.0438801050 0.1517800242
N  4.5451202393 1.0455700159 -0.2347100228
N  2.7620701790 2.2366302013 0.5986101031
O  3.7485001087 3.1640002728 0.9680000544
H  0.9132300615 0.5270200372 -1.2150400877
H  0.4789100289 0.5242800117 0.5094200373
H  0.5063400269 -0.9881700873 -0.4034700096
H  2.4147603512 -2.3004701138 0.3318200111
H  4.0428204536 -1.4950400591 0.6637000442
H  4.8033103943 0.1196700111 -0.5894100666
H  1.9935401678 2.1793701649 1.2612001896
H  4.5358805656 2.8275902271 0.4764900506
