19

C  1.4609900713 -1.0877401829 -0.5288000703
C  1.1806800365 0.1335200071 0.3361600339
C  2.3379602432 0.4450800121 1.2947701216
O  2.1895401478 1.7236200571 1.9155101776
C  1.0460900068 1.8446401358 2.7485501766
O  2.4605102539 -0.6117600799 2.2465200424
C  3.6815004349 -0.5350100398 2.9698503017
H  0.6242700219 -1.2658801079 -1.2112801075
H  1.5947401524 -1.9852801561 0.0823900029
H  2.3634400368 -0.9421901107 -1.1302400827
H  0.2616400123 -0.0602500066 0.9023401141
H  0.9851700664 1.0022701025 -0.3036800325
H  3.2599902153 0.4955900609 0.7020200491
H  1.1067200899 2.8065700531 3.2662303448
H  1.0137400627 1.0535000563 3.5032904148
H  0.1276000142 1.8430800438 2.1552102566
H  3.7149603367 -1.3713901043 3.6736202240
H  3.7416403294 0.3971600235 3.5396401882
H  4.5367002487 -0.6191000938 2.2919702530
