15

O  0.9864400625 -0.0833600014 -0.2447600216
C  2.3730802536 -0.0052900007 0.0083400002
C  3.0250401497 -1.2275900841 -0.5492500067
C  4.0057201385 -0.9235900640 -1.4108401537
C  4.1473002434 0.5591400266 -1.5745401382
C  3.0145802498 1.1325501204 -0.7525500655
C  2.6285502911 2.4157700539 -0.7798100710
H  0.6176700592 0.7884000540 -0.0324200019
H  2.5578000546 0.0720500052 1.0846701860
H  2.7257301807 -2.2299301624 -0.2780900300
H  4.6167502403 -1.6452701092 -1.9357300997
H  5.1164102554 0.8860101104 -1.1824301481
H  4.0579905510 0.8403400779 -2.6271903515
H  3.1493103504 3.1412601471 -1.4005800486
H  1.7893201113 2.7769401073 -0.1958700269
