17

C  2.5592701435 -0.5853400230 1.4371601343
C  2.5885100365 0.0107800001 0.0376900025
C  3.1340100765 1.3986201286 0.0184700023
C  4.2578902245 1.8263101578 -0.5570400357
C  4.4065203667 3.2853302956 -0.3548700213
O  3.2407703400 3.7019402981 0.3760400116
C  2.4298202991 2.5449802876 0.6507100463
H  2.1887302399 -1.6148501635 1.3999300003
H  1.8994401693 -0.0168099999 2.1005802155
H  3.5600104332 -0.6019300818 1.8816901445
H  1.5755600929 0.0138100004 -0.3813300133
H  3.1917703152 -0.6381800771 -0.6086699963
H  4.9653701782 1.2163501978 -1.0974000692
H  5.2969503403 3.5259404182 0.2327900082
H  4.4382004738 3.8269302845 -1.3043800592
H  1.4376100302 2.7060103416 0.2195500135
H  2.3450400829 2.4332201481 1.7352901697
