14

C  3.1669900417 0.6618900299 1.9197901487
O  2.4628703594 0.7252200842 0.6824000478
N  2.9603602886 1.7074000835 -0.1905000210
C  2.2469201088 2.9863903522 -0.1733600199
C  3.5922002792 3.6246702671 -0.5768000484
C  4.1922402382 2.2716801167 -0.1408600211
O  5.2763404846 1.8946101665 0.2367800176
H  2.6641502380 -0.0776300058 2.5491900444
H  3.1291303635 1.6270501614 2.4346702099
H  4.1981101036 0.3280000389 1.7802901268
H  1.8737500906 3.2668900490 0.8166700602
H  1.4503201246 3.0523602962 -0.9183900952
H  3.7156202793 3.8414502144 -1.6412601471
H  3.9055202007 4.4770007133 0.0302600022
