13

C  -1.3223201036 0.6455900669 0.2043200135
O  -1.4165700674 -0.7636600137 0.0003100000
C  -0.3319200277 -1.4792901278 0.4136100411
C  0.9433000684 -1.0879400969 0.5166300535
C  1.5078101158 0.1631700099 0.0754300058
C  0.8636700511 1.1900200844 -0.4948400259
O  -0.4744100571 1.3635601997 -0.6903400421
H  -2.3313403130 1.0392000675 0.0399500020
H  -1.0824900866 0.8802300692 1.2522001266
H  -0.6357500553 -2.4963800907 0.6378400326
H  1.6700201035 -1.8194102049 0.8669500351
H  2.5944004059 0.2168600112 0.1261600107
H  1.4004400969 2.0317301750 -0.9185800552
