18

C  3.2788002491 -1.3015500307 -0.3145100176
C  2.5367701054 -0.0288900025 0.0581900030
O  1.9799400568 -0.1881400049 1.3610000610
C  3.4498202801 1.1638700962 0.0802600011
C  3.4253902435 2.1837801933 -1.0352001190
N  2.8416302204 2.4867002964 0.2691200078
C  3.6630203724 3.3869202137 1.0749300718
H  3.7299003601 -1.2203801870 -1.3080800772
H  2.5981099606 -2.1592900753 -0.3043200374
H  4.0734705925 -1.5201201439 0.4074600339
H  1.7044001818 0.1208700091 -0.6397900581
H  1.6378000975 0.6959000230 1.5948600769
H  4.3819003105 0.9654400945 0.5968600512
H  2.7185702324 2.0549600124 -1.8461701870
H  4.3541007042 2.6665201187 -1.3146700859
H  3.4443802834 3.2297701836 2.1362600327
H  3.4120702744 4.4252004623 0.8343200684
H  4.7436499596 3.2620902061 0.9331500530
