15

C  0.9678300619 -0.0026600002 0.0008000000
C  2.4688203335 -0.0152600007 0.0016100002
C  3.1532802582 -1.1690400839 0.0096000005
C  3.1850004196 1.2176301479 0.0000000000
C  3.7800800800 2.2483401299 0.0000000000
C  4.5020804405 3.4988803864 0.0000000000
O  3.6007003784 4.5861101151 -0.1635100096
H  0.5749400854 1.0186901093 0.0476000048
H  0.5757900476 -0.5466100574 0.8665900826
H  0.5799199939 -0.4658300281 -0.9124200940
H  2.6422402859 -2.1266102791 0.0133000016
H  4.2392106056 -1.1882101297 0.0132500017
H  5.2329401970 3.5377404690 -0.8133500814
H  5.0399603844 3.6470401287 0.9408200383
H  3.0413503647 4.3700404167 -0.9288300872
