10

O  1.0112401247 0.0056700003 0.1989700049
C  2.2257900238 0.0576800033 0.0758300051
O  2.9417402744 1.2023000717 -0.0012700001
C  4.3228902817 1.0689400434 -0.1406800151
C  4.9514803886 -0.1064700112 -0.1994900107
N  4.3088302612 -1.3085200787 -0.1295200139
C  3.0195002556 -1.2341001034 0.0007900001
H  4.8060803413 2.0347001553 -0.1935200095
H  6.0327506065 -0.1459300220 -0.3089000285
H  2.4095301628 -2.1485400200 0.0663300008
