19

C  2.0145001411 -0.0076500010 0.6154300570
C  2.7860100269 -0.1012900099 -0.7057400942
C  2.1443200111 -1.1160300970 -1.6737201214
N  2.1152601242 -2.4745402336 -1.1312301159
C  2.8464102745 1.2649500370 -1.3501700163
C  4.0132904053 2.1798403263 -1.0741900206
N  3.8566901684 1.5328501463 -2.3728001118
H  2.4609301090 0.7454500198 1.2728201151
H  2.0188601017 -0.9618300796 1.1512401104
H  0.9717700481 0.2832899988 0.4445800185
H  3.8055105209 -0.4393900633 -0.4743100405
H  2.7015402317 -1.1299400330 -2.6178803444
H  1.1200100183 -0.8092400432 -1.9153801203
H  3.0709300041 -2.7767901421 -0.9418801069
H  1.7577800751 -3.1084101200 -1.8452001810
H  1.8690001965 1.7068001032 -1.5116000175
H  4.8350701332 1.8179801702 -0.4673600495
H  3.8416402340 3.2480504513 -1.0383901596
H  3.5040602684 2.1946699619 -3.0677301884
