14

C  1.9946701527 -0.5904200077 -1.2041900158
C  2.1130602360 0.3402200341 -0.2472900152
C  3.2461402416 1.2506700754 -0.0664400011
N  3.5514304638 2.1874701977 -1.1415301561
C  2.9892902374 2.7345700264 0.0899600089
C  3.8499903679 3.4969604015 0.9448100328
C  4.5690503120 4.1382403374 1.6606501341
H  1.1222901344 -1.2337300777 -1.2548401356
H  2.7715003490 -0.7304500341 -1.9502701759
H  1.3103201389 0.4224300385 0.4838400483
H  4.1069102287 0.8244300485 0.4397000372
H  2.8379702568 2.1447103024 -1.8686301708
H  1.9661102295 3.0890402794 0.0150900008
H  5.2146506310 4.7073702812 2.2885303497
