19

C  1.0737301111 2.2818300724 -1.2841401100
O  2.4890902042 2.1639599800 -1.3007000685
C  2.9988102913 1.7079501152 -0.0454700030
C  4.5211200714 1.6071500778 -0.1330500096
C  5.1712503433 2.9624302387 -0.1867300123
C  5.7824006081 3.5750703812 1.0475300550
C  6.6685104370 3.0753002167 -0.0601700060
H  0.7480601072 2.6465802193 -2.2622501850
H  0.7568300366 2.9990701675 -0.5210200548
H  0.6106800437 1.3071900606 -1.1029601097
H  2.5814001560 0.7168800831 0.1660300046
H  2.7010102272 2.4003801346 0.7503600717
H  4.8007502556 1.0551500320 -1.0379000902
H  4.8936405182 1.0436500311 0.7305700183
H  4.6944499016 3.6189403534 -0.9074100852
H  5.7711806297 3.0142002106 1.9746301174
H  5.6916203499 4.6475300789 1.1780500412
H  7.1707806587 3.8085701466 -0.6813600659
H  7.2439804077 2.1736602783 0.1130700037
