13

C  3.2657403946 -1.1511400938 0.4985400140
O  2.4836602211 0.0079300003 0.2641400397
C  3.1257202625 1.1672801971 0.1414500177
N  2.4953801632 2.3001601696 -0.0680700094
C  3.4718701839 3.2598302364 -0.1381700039
C  4.7162599564 2.7020699978 0.0309300032
N  4.4804902077 1.3659400940 0.2081600130
H  2.5896403790 -2.0079400539 0.5764300227
H  3.8173604012 -1.0690400600 1.4413901567
H  3.9523601532 -1.3370400667 -0.3344500363
H  3.2244002819 4.3000202179 -0.3066200316
H  5.7111105919 3.1231503487 0.0401000008
H  5.1788802147 0.6538500786 0.3602400422
