12

C  1.1463400126 0.0690700039 -0.0061300006
S  2.9184803963 -0.0395000055 -0.0219300017
O  3.3114902973 -0.6484900713 1.2340201139
O  3.2904803753 -0.6234900951 -1.2960000038
C  3.3971402645 1.6678301096 -0.0090399999
C  4.8525300026 1.6980801821 -0.0206100009
N  6.0071101189 1.8019201756 -0.0289800018
H  0.8168000579 0.6076700091 -0.8965300918
H  0.8317300677 0.5898100138 0.9001600742
H  0.7424200177 -0.9455300570 -0.0128600001
H  2.9897902012 2.1299500465 0.8934600353
H  2.9751603603 2.1475303173 -0.8954900503
