16

O  0.8861400485 0.2562400103 -0.2218200117
C  2.2799501419 -0.0409900025 -0.3795400560
C  3.0953402519 1.0980800390 0.2430500090
O  2.7113101482 1.2198600769 1.6207901239
C  4.5868802071 0.9541100860 0.1878700107
C  5.3019003868 -0.3748500347 0.1408300102
N  5.2499203682 0.4935200512 -1.0352001190
H  0.4013800323 -0.4614700079 -0.6664500833
H  2.4973502159 -0.1590100080 -1.4446300268
H  2.4614400864 -0.9862500429 0.1394599974
H  2.8131999969 2.0442202091 -0.2355000228
H  1.7339501381 1.1832101345 1.5988701582
H  5.0748901367 1.7674001455 0.7150300145
H  4.7407302856 -1.2959300280 0.0715300068
H  6.2599706650 -0.4604700208 0.6402000189
H  6.1373701096 0.9843000770 -1.1632800102
