20

C  2.3557703495 -0.4446200132 -1.5715701580
C  2.4357600212 0.0472700037 -0.1349700093
C  3.3138303757 1.2881001234 -0.0296400022
N  2.6645903587 2.5215601921 -0.5555700660
C  3.2841901779 3.2854001522 0.5533800721
C  3.3602302074 1.9749702215 1.3623301983
C  4.6051902771 1.7554202080 2.1961700916
H  1.7522600889 -1.3561500311 -1.6281201839
H  3.3525302410 -0.6698800325 -1.9655600786
H  1.8989701271 0.3061800301 -2.2243402004
H  2.8603501320 -0.7499700189 0.4867900312
H  1.4248501062 0.2407900244 0.2435400188
H  4.3112306595 1.1231900454 -0.4624700546
H  1.6456701756 2.5011601448 -0.5014600158
H  4.2520804405 3.7256901264 0.2846000195
H  2.6506302357 4.0685706139 0.9799200892
H  2.4525401592 1.8044601679 1.9592401981
H  5.5177001953 1.9321701527 1.6172900200
H  4.6383705139 0.7286300659 2.5738201141
H  4.6150403023 2.4312102795 3.0570702553
