16

C  0.9393800497 -0.0234000012 0.1822100133
C  2.4393002987 0.0246800017 -0.0785400122
C  2.7675902843 0.0277900007 -1.5681400299
C  3.2046103477 1.0766601562 0.7744000554
N  4.0976004601 -0.0081700003 1.1951501369
C  3.2687504292 -0.9925801158 0.7485401034
O  3.2439403534 -2.1681101322 1.0142201185
H  0.7168300152 -0.0520400032 1.2544500828
H  0.4920500219 -0.9139300585 -0.2726400197
H  0.4423900545 0.8573600650 -0.2383600175
H  3.8489303589 0.0557300076 -1.7435702085
H  2.3295600414 0.9022800922 -2.0611701012
H  2.3752803802 -0.8702700734 -2.0572702885
H  2.6611003876 1.5135701895 1.6180400848
H  3.7245101929 1.8616000414 0.2188100219
H  4.5611701012 -0.1521700174 2.0815100670
