15

C  1.1192300320 -0.1407600194 -0.0015800002
C  2.5994400978 -0.0085500004 -0.1023600027
N  3.2851002216 -0.3908900321 -1.3330401182
C  3.2176902294 1.0410200357 -0.9916800857
C  4.4870800972 1.7319601774 -0.6068200469
O  5.4422206879 1.5440101624 -1.6443301439
H  0.7375700474 0.5159900188 0.7868600488
H  0.8475700617 -1.1703201532 0.2534000278
H  0.6127500534 0.1238500103 -0.9363601208
H  3.1005802155 -0.2774900198 0.8202700615
H  2.6181201935 -0.6107000113 -2.0762801170
H  2.5967803001 1.6475101709 -1.6389201880
H  4.9089803696 1.3360301256 0.3236300349
H  4.3193607330 2.8055400848 -0.4768700302
H  5.3822503090 0.5933400989 -1.8624502420
