17

C  2.3503501415 0.0618400052 1.6969001293
C  2.4666402340 0.2426100224 0.1914200187
N  3.0296301842 1.5497400761 -0.1417800188
C  2.1281702518 2.6890001297 -0.0969100073
C  4.3931798935 1.7418200970 -0.1535100192
N  5.3068804741 0.8335200548 -0.0406500064
O  6.5666208267 1.4411300421 -0.1067100093
H  1.9325401783 -0.9226800799 1.9282901287
H  1.6944501400 0.8197900653 2.1368403435
H  3.3274502754 0.1407600194 2.1835401058
H  1.4764300585 0.1345899999 -0.2674200237
H  3.0832402706 -0.5596900582 -0.2315100133
H  1.1128101349 2.4070801735 -0.3939700127
H  2.4613003731 3.4754903316 -0.7823700905
H  2.0904402733 3.1046001911 0.9151300788
H  4.6700305939 2.8050901890 -0.2797500193
H  7.1664004326 0.6759501100 -0.0368500017
