18

C  1.0174300671 -0.0197300017 0.0098700011
C  2.5364403725 -0.0008100001 0.0509300046
C  3.0947601795 1.1532201767 0.8737500906
C  4.4942302704 0.6722700596 1.2115601301
O  5.3907203674 0.9995400906 0.1479900181
C  4.3390302658 -0.8451900482 1.3471901417
N  3.0619502068 -1.2007101774 0.7099700570
H  0.6537600756 -0.8645100594 -0.5846900344
H  0.6335500479 0.9009300470 -0.4413900375
H  0.5876000524 -0.1056600064 1.0137600899
H  2.9267201424 0.0512500033 -0.9736900926
H  2.5141701698 1.2927000523 1.7937700748
H  3.0931103230 2.0888102055 0.3063099980
H  4.8771705627 1.1352801323 2.1255400181
H  5.1435303688 0.4654300511 -0.6262200475
H  5.1713299751 -1.3869900703 0.8852700591
H  4.2779502869 -1.1290301085 2.4021902084
H  3.1813004017 -1.9620802402 0.0439100042
