12

C  0.6939700842 1.2572100163 -0.6394200921
C  -0.3025900126 1.0116300583 0.4565100372
O  -1.3444900513 0.0505800061 0.1955700219
C  -0.7251200676 -1.2445701361 0.1275400072
O  0.7051200271 -1.1160300970 0.1833000034
C  1.0011301041 0.2696900070 0.4486500323
H  0.4742200375 0.8811401129 -1.6306600571
H  1.2297999859 2.1985201836 -0.6315300465
H  -0.4625500441 1.7759702206 1.2037900686
H  -1.0628499985 -1.8467601538 0.9758101106
H  -1.0062301159 -1.7284901142 -0.8116600513
H  1.7473500967 0.5180600286 1.1910800934
