17

C  0.7990100980 0.0262400024 -0.0518900044
C  2.2993700504 -0.2012800276 0.0326300040
C  3.0642201900 1.1213201284 0.0335000008
N  4.5058803558 0.9182900786 0.1027500033
N  5.0887103081 0.7305100560 1.3805700541
C  5.2814002037 0.6689200401 -1.0217001438
O  6.4703907967 0.3687800467 -1.0053200722
H  0.2687599957 -0.9314600825 -0.0500300005
H  0.5339300632 0.5592800379 -0.9709001184
H  0.4424600303 0.6134300828 0.8007900715
H  2.6205403805 -0.8197301030 -0.8135500550
H  2.5284302235 -0.7678700686 0.9425901175
H  2.7601201534 1.7499002218 0.8790100813
H  2.8444302082 1.6741201878 -0.8878400326
H  5.6547803879 1.5615500212 1.5738601685
H  5.7916903496 -0.0125000002 1.2768700123
H  4.7141804695 0.7775100470 -1.9610201120
