16

C  -1.7210801840 0.9349400401 0.3830500245
C  -1.3340801001 -0.3799200356 -0.2059900016
N  -0.3078400195 -1.2859001160 0.2834800184
C  0.7696200013 -0.5959700346 -0.4326700270
C  2.0202300549 -0.0993200094 0.1158400103
C  0.8942900896 0.9049400687 -0.0235100016
C  -0.5617900491 0.8859301209 -0.5935300589
H  -2.6461303234 1.3854601383 0.0413700044
H  -1.5207000971 1.1028200388 1.4335401058
H  -2.0064601898 -0.8013300896 -0.9493700266
H  -0.1940500140 -1.1908000708 1.2923901081
H  0.8539800644 -0.8831500411 -1.4864400625
H  2.3070101738 -0.4255500138 1.1093201637
H  2.8653001785 0.0127900010 -0.5546500087
H  0.8436700702 1.3644300699 0.9669700861
H  -0.7244300842 1.2969400883 -1.5858100653
