17

N  1.0761001110 0.2027200162 0.2388800085
C  2.4665203094 -0.0896000117 -0.0905500054
C  2.7101702690 -1.5375001431 -0.6041400433
N  2.9365100861 -1.4814401865 -2.0618700981
C  3.2485501766 -0.0852300078 -2.3835601807
C  2.1541099548 0.9298000336 -2.5025401115
C  2.9227802753 0.7929600477 -1.2111800909
H  1.0007101297 1.1599800587 0.5724400282
H  0.7630400658 -0.4059300125 0.9898800850
H  3.0845303535 0.0845700055 0.7985200286
H  1.8922300339 -2.2220702171 -0.3541600108
H  3.6185302734 -1.9271401167 -0.1247200072
H  3.6849400997 -2.1196603775 -2.3220901489
H  4.1664104462 0.0986800045 -2.9329102039
H  2.3398201466 1.8072501421 -3.1107501984
H  1.1296100616 0.5786500573 -2.5384199619
H  3.6254203320 1.5619300604 -0.9230900407
