13

C  3.3800704479 -1.3191801310 0.3970700502
C  2.5762300491 -0.0538200028 0.2518600225
O  1.3504800797 -0.0545300059 0.3532400131
C  3.2685801983 1.2356401682 -0.0154300015
C  4.5949106216 1.3811100721 -0.0917500034
N  5.2714304924 2.5470302105 -0.3450900316
H  4.0365099907 -1.2499901056 1.2681801319
H  3.9588901997 -1.5056301355 -0.5112100244
H  2.6994800568 -2.1631500721 0.5456100106
H  2.6007602215 2.0797002316 -0.1528200209
H  5.2740702629 0.5407200456 0.0375500023
H  4.7253103256 3.3970003128 -0.2182200253
H  6.1943001747 2.6037104130 0.0811400115
