17

C  2.4778001308 -0.9999700785 -0.4240700305
O  2.1847200394 0.3129799962 0.0348400027
C  3.3230600357 1.1869901419 -0.0109200012
C  3.5305302143 1.7607601881 -1.4248800278
C  2.9512600899 3.1372301579 -1.3385400772
C  2.6809201241 3.4859802723 -0.0790000111
C  3.0385603905 2.4029903412 0.8885600567
H  1.5597500801 -1.5918802023 -0.3764100373
H  3.2261803150 -1.4699001312 0.2212600112
H  2.8298001289 -0.9890300632 -1.4591400623
H  4.2070703506 0.6462399960 0.3480300307
H  3.0203502178 1.1797901392 -2.1978502274
H  4.5957303047 1.8326201439 -1.6683900356
H  2.7899401188 3.7705903053 -2.2005403042
H  2.2707600594 4.4405603409 0.2224000096
H  3.9336202145 2.7003400326 1.4452700615
H  2.2207601070 2.2161502838 1.5911400318
