14

C  1.1039400101 -0.4030000269 0.4811600447
C  2.5238702297 -0.6435400844 0.0433900058
O  2.9476001263 -1.7831001282 -0.1647400111
C  3.3730304241 0.5939600468 -0.2194400132
N  4.7669606209 0.2861500382 0.0282200016
C  5.3287000656 0.5186200738 1.2558801174
O  4.7859005928 1.1082400084 2.1780202389
H  0.5585700870 0.1075800061 -0.3162400424
H  1.0969200134 0.2027900219 1.3910701275
H  0.6165000796 -1.3582201004 0.6943500042
H  3.0471103191 1.4153300524 0.4245500267
H  3.2616100311 0.8788900375 -1.2686101198
H  5.1974201202 -0.4227400124 -0.5554600358
H  6.3490505219 0.1090800092 1.3281700611
