17

C  1.1322600842 -0.0029800003 0.2486200184
N  2.4446101189 0.0832000077 -0.3743300438
C  3.0938403606 1.1836000681 -0.2479000241
C  2.6482501030 2.4418601990 0.4588600397
C  3.4718203545 3.4913702011 -0.2927600443
C  4.7448306084 2.7660901546 -0.7345300913
N  4.3319401741 1.3853801489 -0.7836200595
H  0.7970300317 -1.0446600914 0.2299600244
H  0.3965800405 0.5896700621 -0.3042000234
H  1.1499000788 0.3119700253 1.2976001501
H  2.9376802444 2.3808600903 1.5130001307
H  1.5774201155 2.6305701733 0.3709600270
H  2.9149501324 3.8214902878 -1.1790500879
H  3.6824903488 4.3760604858 0.3147600293
H  5.0950903893 3.1221601963 -1.7072900534
H  5.5441603661 2.8897502422 0.0025100000
H  4.6330103874 0.7659300566 -1.5257700682
