15

C  2.0874600410 -0.0195300002 0.4256500304
C  2.0860202312 1.2240000963 -0.0701900050
O  3.1082303524 2.1257202625 -0.1376300156
C  4.3687605858 1.7288800478 0.4100000262
C  5.3570008278 2.8533301353 0.1526700109
C  6.7148604393 2.5493800640 0.7199600935
O  6.9949202538 1.5307300091 1.3433700800
H  1.1796400547 -0.6134700775 0.3985400200
H  2.9640202522 -0.4826500118 0.8616900444
H  1.1935700178 1.6627401114 -0.5037000179
H  4.7211704254 0.8102700710 -0.0752300024
H  4.2655200958 1.5541300774 1.4882401228
H  4.9980502129 3.7894802094 0.5938500166
H  5.4630403519 3.0252802372 -0.9241400957
H  7.4797205925 3.3249402046 0.5425100327
