15

C  -0.6523200870 0.5459800363 0.8720100522
C  0.4406800270 -0.2268900126 0.2116900235
C  1.6398501396 0.2894600034 -0.0783800110
O  2.6260602474 -0.4678700268 -0.7107000351
C  3.8240602016 0.1677700132 -0.9266000390
C  4.7534999847 -0.7610100508 -1.6485700607
O  4.1191105843 1.3099300861 -0.6003200412
H  -0.9364001155 0.0656100065 1.8129301071
H  -1.5314100981 0.5765400529 0.2212900072
H  -0.3545100391 1.5765300989 1.0911101103
H  0.2300700247 -1.2631400824 -0.0392300040
H  1.9164301157 1.3130600452 0.1420700103
H  4.9418506622 -1.6481301785 -1.0396200418
H  5.7058606148 -0.2515900135 -1.8260501623
H  4.3241105080 -1.0382601023 -2.6145401001
