17

C  0.9882000685 0.0224100016 0.1028700024
C  2.3273603916 0.0081900004 0.0342800021
C  3.1450102329 -1.2596801519 -0.0082200002
C  4.1190204620 -1.2110800743 -1.1880000830
O  4.9398202896 -0.0352500044 -1.1362401247
C  4.1451206207 1.1559901237 -1.2205500603
C  3.1703402996 1.2577601671 -0.0444800034
H  0.4307500422 0.9546000361 0.1208700091
H  0.4124500155 -0.8970800638 0.1474200189
H  2.5120003223 -2.1504201889 -0.0844900087
H  3.7113502026 -1.3319500685 0.9283000827
H  4.7853803635 -2.0792303085 -1.1530001163
H  3.5887603760 -1.2400801182 -2.1479699612
H  4.8300304413 2.0098600388 -1.2069900036
H  3.6169104576 1.1712900400 -2.1816501617
H  3.7369201183 1.3462702036 0.8909100294
H  2.5551602840 2.1583802700 -0.1476800144
