10

C  1.4759000540 -0.4011300206 0.9273200631
O  2.8353402615 -0.2408400178 0.5253300667
C  3.2302203178 1.0558301210 0.4451900423
O  2.5454702377 2.0400903225 0.6788700819
C  4.6077404022 1.1802600622 0.0367600024
C  5.7555904388 1.2860500813 -0.3035000265
H  1.2563600540 -1.4718700647 0.9614900947
H  0.8027400374 0.0666700006 0.2019000202
H  1.3189001083 0.0159000009 1.9271401167
H  6.7725806236 1.3834100962 -0.6048700213
