11

C  2.1886603832 0.0748000070 0.8919700980
N  1.8653401136 0.1435200125 -0.5297000408
C  2.3960103989 1.3749101162 -0.5875700712
C  2.8541100025 2.4139201641 -1.3149200678
S  3.6428802013 3.4538202286 -0.1349200159
N  3.4639103413 2.3918702602 1.1994400024
C  2.6761002541 1.4450500011 0.7430600524
H  2.9253602028 -0.6710100770 1.2021701336
H  1.3048801422 -0.0235500019 1.5312200785
H  2.2944700718 -0.5833100080 -1.0982100964
H  2.8164901733 2.6458501816 -2.3679301739
