12

C  0.4255600274 1.4240400791 0.3131999969
C  1.1079300642 0.3056300282 -0.4401300550
C  1.0473500490 -1.0913600922 0.0500100031
C  -0.4309800267 -1.2473500967 0.0879200101
N  -1.0919600725 -0.2167400122 -0.3322900236
N  -0.2445700318 0.7618401051 -0.8018700480
H  0.7475000024 2.4394903183 0.1181800067
H  0.0367600024 1.2580201626 1.3101500273
H  1.9003801346 0.5271300673 -1.1384100914
H  1.4738501310 -1.2176901102 1.0474801064
H  1.4798200130 -1.8130900860 -0.6468800306
H  -0.8989500999 -2.1652100086 0.4683200419
