17

N  1.0171900988 -0.0290200021 -0.0613500066
C  2.4765100479 -0.0894500092 -0.0543000065
C  3.1759603024 -0.7607900500 -1.1927700043
C  3.2578103542 0.7413600683 -1.0498901606
C  4.5311903954 1.4779601097 -0.6520900726
C  5.9194602966 1.0182900429 -1.0336101055
N  5.3011403084 2.1462502480 -1.7073501348
H  0.6824400425 0.7515700459 0.5024100542
H  0.6167700291 -0.8717400432 0.3494100273
H  2.9210801125 -0.2201500088 0.9300200939
H  2.5831201077 -1.1492301226 -2.0131001472
H  4.0535802841 -1.3530300856 -0.9664700627
H  2.6486902237 1.3009201288 -1.7624402046
H  4.4495801926 2.0515902042 0.2693100274
H  6.0270404816 0.1188500077 -1.6260501146
H  6.7402005196 1.2370100021 -0.3632100523
H  5.6750407219 3.0335102081 -1.3684900999
