18

N  0.7634000778 0.2492900193 -0.2333800048
C  2.1627602577 0.2075300217 -0.6606500149
C  3.1060101986 0.4568400383 0.5178400278
C  4.5488505363 0.4084500372 0.0936200097
O  4.9437603951 1.4721500874 -0.7850600481
C  5.5983700752 -0.0953400061 1.0500600338
C  5.2251605988 -0.9123400450 -0.1545400023
H  0.1661200076 0.1067600101 -1.0474300385
H  0.5480999947 1.1840600967 0.1124300063
H  2.3228499889 0.9559201002 -1.4449700117
H  2.3670201302 -0.7739300132 -1.1029900312
H  2.9159202576 -0.2874800265 1.3016600609
H  2.9020502567 1.4396100044 0.9606100917
H  5.7781805992 1.8856902122 -0.5047000051
H  5.2815904617 -0.4586900175 2.0217900276
H  6.5745205879 0.3739400208 1.0585200787
H  5.9331107140 -0.9730600715 -0.9731400609
H  4.6559801102 -1.8211801052 0.0032800003
