16

O  0.9975700974 0.0199000016 -0.0958800092
C  2.4231300354 -0.0572500043 0.0418600067
C  3.1288003922 -0.8024500608 -1.0445801020
C  3.2290503979 0.7040400505 -0.9855901003
C  4.5204300880 1.4273800850 -0.6203400493
C  5.8655605316 1.0475701094 -1.1958000660
N  5.1735906601 2.2401502132 -1.6519501209
H  0.6625600457 0.8799200654 0.2106100172
H  2.8264701366 -0.1455300003 1.0462601185
H  2.5305702686 -1.2369900942 -1.8375401497
H  3.9952301979 -1.3914500475 -0.7712800503
H  2.6385700703 1.2302001715 -1.7377901077
H  4.5301499367 1.8734601736 0.3720600307
H  5.9135704041 0.2280700207 -1.9025300741
H  6.7494401932 1.1938501596 -0.5882100463
H  5.5804405212 3.0823402405 -1.2427200079
