13

C  1.8343201876 -0.7581900358 -1.1750199795
C  2.4622902870 -0.2387000173 -0.1126900092
C  3.1994202137 1.0715701580 -0.1293000132
C  4.6859002113 0.8860700727 0.1733900160
C  5.3825802803 2.1786801815 0.1701000184
N  5.9320907593 3.2003800869 0.1691400111
H  1.3070901632 -1.7052100897 -1.1008601189
H  1.8221701384 -0.2563300133 -2.1381001472
H  2.4304201603 -0.7794900537 0.8318800926
H  2.7437603474 1.7333801985 0.6181400418
H  3.0768003464 1.5706000328 -1.0994600058
H  5.1416902542 0.2231400162 -0.5719800591
H  4.8146905899 0.4049900174 1.1503601074
