17

C  0.8677300811 -0.1134900078 0.1660300046
C  2.3724901676 0.0048400001 -0.0380800031
C  2.7941801548 0.0123300012 -1.5015901327
O  2.2308101654 1.1381400824 -2.1681902409
C  3.0645201206 1.0805001259 0.8183500767
O  3.9101302624 0.0933100060 1.4548101425
C  3.1913001537 -0.9832400680 0.8123200536
H  0.6087700725 -0.1711300164 1.2292801142
H  0.4770100415 -1.0141900778 -0.3195700347
H  0.3417100310 0.7522700429 -0.2498500049
H  2.4715600014 -0.8983501196 -2.0183901787
H  3.8825104237 0.0820600092 -1.6052401066
H  1.3050701618 0.9265100956 -2.3787300587
H  2.4347202778 1.5895401239 1.5549900532
H  3.6571702957 1.8247200251 0.2779100239
H  3.8690602779 -1.6470102072 0.2666200101
H  2.6318702698 -1.5719701052 1.5466400385
