9

N  0.9592000842 -0.1310800016 -0.0066300007
C  2.1179502010 -0.0498100035 -0.0026000002
C  3.5252802372 0.0838400126 0.0022000002
C  4.3530402184 1.1766101122 0.0027300003
C  5.6425905228 0.6128500104 0.0087000001
N  5.6099405289 -0.7231200337 0.0116200009
O  4.2605705261 -1.0560901165 0.0074700010
H  4.0726003647 2.2190501690 -0.0006700000
H  6.6030106544 1.1104600430 0.0110700009
