19

C  2.3442101479 -0.3162200451 -0.2911700308
C  3.8600802422 -0.4140300155 -0.3336200118
N  4.4117407799 0.8826400638 0.0428100042
C  5.6947407722 1.0320000648 0.0969500020
C  6.6706204414 -0.0899500102 -0.2042200118
N  6.2487106323 2.2428002357 0.4438300431
C  5.4602203369 3.3204202652 0.9960800409
H  1.8912101984 -1.2687801123 -0.5816200376
H  1.9830001593 0.4595700204 -0.9742100835
H  1.9973001480 -0.0626500025 0.7158800960
H  4.1665401459 -0.6882600784 -1.3491101265
H  4.1831803322 -1.1963700056 0.3620000184
H  6.5424904823 -0.8934000731 0.5261600018
H  7.7037005424 0.2648600042 -0.1496600062
H  6.4955701828 -0.4781500399 -1.2108300924
H  7.2281908989 2.2509801388 0.7019700408
H  4.6089205742 3.5615901947 0.3510000408
H  6.0770006180 4.2194504738 1.0850200653
H  5.0927805901 3.0570204258 1.9925100803
