11

N  1.0116500854 0.0038400004 -0.0077400007
C  2.4700002670 0.0000000000 0.0000000000
C  2.9499702454 -0.7825900316 -1.1502201557
C  3.3414003849 -1.4227200747 -2.0892403126
C  2.9520201683 1.3611700535 0.0000000000
C  3.3493003845 2.4830701351 0.0000000000
H  0.6859100461 0.4799100459 0.8292800784
H  0.6864899993 -0.9572300315 0.0552300029
H  2.8026101589 -0.4977600276 0.9189600945
H  3.6847703457 -1.9806002378 -2.9294602871
H  3.7003602982 3.4888501167 -0.0108200014
