12

C  2.2146501541 -1.4105601311 0.4743900597
C  3.4300403595 -0.8602500558 0.3649200201
C  3.5846102238 0.6173000932 0.2835800350
O  2.6307103634 1.3849800825 0.3118600249
C  4.9922204018 1.0834500790 0.1653200090
C  5.2682003975 2.3912601471 0.0878800079
H  2.0911002159 -2.4864699841 0.5347100496
H  1.3155900240 -0.7996000648 0.5063700080
H  4.3185601234 -1.4806001186 0.3342600167
H  5.7850704193 0.3472600281 0.1435300112
H  4.4799704552 3.1404502392 0.1089900136
H  6.2907705307 2.7420101166 0.0016000001
