17

N  2.9073002338 -0.8063100576 -1.1973501444
C  2.3296401501 -0.1015800089 -0.0467300043
C  2.8178601265 1.3572001457 0.0544300042
N  4.2820105553 1.4408100843 -0.0385200046
C  4.7276206017 2.8273801804 0.0589800030
C  6.1921205521 2.8793501854 -0.0361200012
C  7.3903708458 2.9248301983 -0.1093000099
H  2.5448303223 -1.7591401339 -1.2110401392
H  3.9095103741 -0.9022400379 -1.0250900984
H  2.5986101627 -0.6437000632 0.8674100637
H  1.2375301123 -0.1123200059 -0.1270600110
H  2.4720301628 1.7753901482 1.0069200993
H  2.3616302013 1.9396902323 -0.7560000420
H  4.5507106781 1.0846999884 -0.9569500685
H  4.4141802788 3.2603602409 1.0158101320
H  4.2886805534 3.4307601452 -0.7441200614
H  8.4535808563 2.9594702721 -0.1684100181
