15

C  1.1176000834 0.1877300143 -0.0809100047
C  2.5650501251 -0.0823600069 -0.0159400012
C  3.3144102097 -1.1386101246 -0.3574800491
C  4.6683902740 -0.6792000532 0.0519800037
C  4.8068499565 0.8126300573 -0.4509100616
C  3.5855202675 0.8445500731 0.5504200459
O  4.5056004524 -0.0120000010 1.4144001007
H  0.5628100634 -0.7019900680 -0.3927500248
H  0.9106200933 0.9883801341 -0.7969100475
H  0.7404300570 0.4946500659 0.8994200230
H  3.0253002644 -2.0820400715 -0.7880600095
H  5.5191001892 -1.3568102121 -0.0101300012
H  4.5946102142 1.0075501204 -1.5049600601
H  5.7063603401 1.3488801718 -0.1339500099
H  3.2869002819 1.7823201418 1.0173400640
