13

C  1.0300000906 0.0104400003 -0.0070400005
N  2.4718902111 0.0375399999 0.0009200001
C  3.2742002010 1.1455601454 0.0050500003
C  4.5527801514 0.6558400393 0.0119700013
O  5.6693606377 1.3955401182 0.0178600010
C  4.4350905418 -0.7400600314 0.0114700003
N  3.1539502144 -1.1262800694 0.0045100003
H  0.6467600465 1.0347400904 0.0004600000
H  0.6897701025 -0.5210900307 0.8849200606
H  0.6997500658 -0.5045199990 -0.9123200178
H  2.8678002357 2.1456000805 0.0026800002
H  5.4449906349 2.3414900303 0.0164300017
H  5.2176804543 -1.4865200520 0.0157700013
