15

C  -1.3972301483 0.7024500370 0.1636400223
C  -1.4734801054 -0.7838600278 -0.1680200249
C  -0.2662900388 -1.5878001451 0.2058200091
C  0.9828000665 -1.1447900534 0.3772400320
C  1.4745801687 0.2498700321 0.2122400254
N  0.9289301038 1.3481000662 -0.1989400089
N  -0.3542900383 1.3590300083 -0.6195600629
H  -2.3613901138 1.1560800076 -0.0956700072
H  -1.2501200438 0.8713700771 1.2374801636
H  -1.6683100462 -0.9259700179 -1.2392200232
H  -2.3389000893 -1.2035000324 0.3604100049
H  -0.4497100115 -2.6520602703 0.3487700224
H  1.7599601746 -1.8475801945 0.6652800441
H  2.5357801914 0.3511400223 0.5007600188
H  -0.6283100247 2.3318901062 -0.7768600583
