18

N  1.0909301043 -0.0240200013 -0.0149400020
C  2.5510201454 -0.0160600003 0.0314400010
C  3.1533601284 1.0221101046 -0.9626001120
C  2.7477302551 0.0326900035 -2.1005101204
C  3.1649601460 -1.0019500256 -1.0080600977
C  4.6701202393 -0.7535400987 -0.8599401116
C  4.6614999771 0.7841900587 -0.8268100619
H  0.6644400358 0.7654100657 0.4686200321
H  0.6751100421 -0.8612400293 0.3912100196
H  2.9605102539 -0.0377000012 1.0458800793
H  2.7764000893 2.0434901714 -0.9826800823
H  3.3540501595 0.0563700050 -3.0127804279
H  1.6959202290 0.0336800031 -2.4065003395
H  2.7992501259 -2.0255901814 -1.0734101534
H  5.0717601776 -1.1805800200 0.0643500015
H  5.2400803566 -1.1413500309 -1.7099601030
H  5.2258605957 1.2145301104 -1.6601500511
H  5.0600204468 1.1757400036 0.1144900098
