13

C  2.6395301819 -1.1830101013 0.3783500195
C  2.2065203190 0.0662400052 0.1620800197
C  3.0253803730 1.2281401157 0.0733300075
C  2.5477900505 2.5012700558 -0.1499700099
O  3.5700902939 3.3962800503 -0.1824200153
C  4.7132401466 2.6926600933 0.0216100011
C  4.4336404800 1.3550500870 0.1845700145
H  1.9348200560 -2.0071401596 0.4299200177
H  3.6893103123 -1.4218100309 0.5086900592
H  1.1330201626 0.2081900239 0.0432700068
H  1.5623100996 2.9200103283 -0.2993700206
H  5.6250004768 3.2734003067 0.0233300012
H  5.1624703407 0.5774099827 0.3610300124
