14

N  1.0162200928 -0.0198900010 0.0504200049
C  2.4700002670 0.0000000000 0.0000000000
C  2.9520201683 1.3611700535 0.0000000000
C  3.3493003845 2.4830701351 0.0000000000
C  3.8684704304 3.8146901131 0.0418300033
C  3.8375601768 4.6681404114 -1.1961300373
O  2.8694601059 4.8253402710 -0.1516300142
H  0.6896700263 -0.9758200645 -0.0683700070
H  0.6503900290 0.5119500756 -0.7378801107
H  2.8081700802 -0.5233600140 -0.9006600380
H  2.8647103310 -0.5471100807 0.8621000648
H  4.6402902603 4.0173101425 0.7750800252
H  3.4997103214 4.2338004112 -2.1279802322
H  4.5891904831 5.4396605492 -1.3015800714
