17

C  0.4153600335 -0.6191600561 -0.0054400004
C  1.9264501333 -0.5699100494 0.1355600208
C  2.4776401520 0.8209800720 -0.1633200198
O  3.9083003998 0.8206400275 -0.0441200025
C  4.3949503899 1.0337400436 1.2091000080
C  5.8931102753 1.0224900246 1.1831700802
O  3.7249102592 1.2199000120 2.2145900726
H  0.0477500036 -1.6259400845 0.2130400240
H  0.1080400050 -0.3577700257 -1.0223500729
H  -0.0648000091 0.0763300061 0.6892500520
H  2.3889000416 -1.2989200354 -0.5403100252
H  2.2113201618 -0.8769100904 1.1489400864
H  2.0286600590 1.5855602026 0.4821300209
H  2.2452902794 1.1008300781 -1.1972100735
H  6.2514305115 0.0939900056 0.7302901149
H  6.2734503746 1.0726001263 2.2079401016
H  6.2598304749 1.8886401653 0.6266100407
