21

C  2.7208602428 -1.4044500589 -0.5597200394
C  2.0215702057 -0.1075000092 -0.1507500112
C  0.9692400694 -0.3756000102 0.9257000685
C  3.0206203461 0.9684700966 0.2826100290
C  3.8768103123 0.6533700228 1.4869900942
C  3.6519403458 1.8094801903 -0.8090301156
C  2.6109502316 2.4147002697 0.0876900107
H  3.4873402119 -1.2134901285 -1.3178100586
H  2.0002901554 -2.1142802238 -0.9792200923
H  3.2065801620 -1.8900001049 0.2928900123
H  1.4845801592 0.2575600147 -1.0368601084
H  1.4087100029 -0.8312100768 1.8189002275
H  0.1995300055 -1.0578000546 0.5498600602
H  0.4767400324 0.5532200336 1.2314701080
H  4.5514502525 1.4819000959 1.7290700674
H  4.4986701012 -0.2279300094 1.3054001331
H  3.2588500977 0.4702000320 2.3706803322
H  3.3808803558 1.6160200834 -1.8411600590
H  4.6786203384 2.1365203857 -0.6871700883
H  2.9339802265 3.1508102417 0.8155500889
H  1.6373802423 2.6294901371 -0.3394600153
