17

C  1.0860301256 -0.2880800068 0.0885500014
C  2.6066203117 -0.2584000230 0.0721700042
N  3.0778803825 1.1276801825 0.0892100036
C  4.5451402664 1.1817600727 0.0776100010
C  5.0380907059 2.6303400993 0.0363599993
C  6.5055708885 2.6712601185 0.0252100024
N  7.6659207344 2.6986002922 0.0231900029
H  0.7295700312 -1.3231301308 0.0646600053
H  0.6705300808 0.2313800156 -0.7817900181
H  0.6885800362 0.1841199994 0.9929100871
H  2.9619302750 -0.7690100670 -0.8297800422
H  2.9853200912 -0.8028900623 0.9452800751
H  2.7165501118 1.5931200981 0.9226400852
H  4.9274401665 0.6473300457 -0.8020300269
H  4.9444503784 0.6794100404 0.9673900604
H  4.6643700600 3.1792402267 0.9094600677
H  4.6490101814 3.1357502937 -0.8546701074
