17

C  0.9290000796 0.0785100088 0.0206100009
C  2.4438102245 -0.0169700012 0.0103900004
C  3.1071701050 1.3428001404 -0.0288300030
O  2.4975802898 2.4061100483 -0.0465300046
C  4.6009206772 1.3142201900 -0.0425200015
C  5.3734002113 2.3649101257 -0.8039900661
C  5.3853201866 2.3709599972 0.6980400681
H  0.4836600423 -0.9206600189 0.0491800047
H  0.5612000823 0.5918300748 -0.8743000627
H  0.5757800341 0.6358300447 0.8949400783
H  2.7684502602 -0.5847300291 -0.8680700660
H  2.7833602428 -0.5402300358 0.9106600881
H  5.0315103531 0.3164300025 -0.0420400053
H  4.8190903664 3.1514601707 -1.3058199883
H  6.2761707306 2.0604300499 -1.3194701672
H  6.2962803841 2.0705401897 1.2015401125
H  4.8389601707 3.1616601944 1.2020800114
