17

C  1.1753500700 0.0956300050 -0.1535300165
N  2.6296701431 0.0609100051 -0.0515500046
C  3.2832703590 -0.6371400952 -1.1468700171
C  3.3932402134 0.8749600649 -1.0119000673
C  2.7304801941 1.7313901186 -2.0555500984
C  4.6845202446 1.4476701021 -0.4814500213
H  0.7882700562 0.9627200961 0.3898200095
H  0.7643800378 -0.7999100685 0.3240100145
H  0.7758400440 0.1242100075 -1.1713901758
H  2.6696503162 -1.0572000742 -1.9351401329
H  4.1367502213 -1.2463001013 -0.8713400364
H  1.9641400576 1.1990801096 -2.6281001568
H  3.4728703499 2.0818102360 -2.7824501991
H  2.2707300186 2.6114001274 -1.5940401554
H  5.1236405373 0.8237900734 0.3052900136
H  4.5135502815 2.4449601173 -0.0622600019
H  5.4201102257 1.5348801613 -1.2878601551
