16

C  1.8194401264 -0.7002900243 -0.3721300066
C  3.3141503334 -0.5049400330 -0.1796500236
C  3.6644804478 0.9653500915 0.0287500024
C  5.1500005722 1.1200400591 0.2669100165
N  5.6307606697 1.0935301781 1.5366401672
N  5.9844307899 1.2404199839 -0.7119400501
H  1.5923402309 -1.7599002123 -0.5241400599
H  1.4606400728 -0.1466400176 -1.2453001738
H  1.2636001110 -0.3565600216 0.5058100224
H  3.8478503227 -0.8956000805 -1.0546801090
H  3.6490201950 -1.0965901613 0.6810900569
H  3.1233501434 1.3696100712 0.8917800784
H  3.3793601990 1.5557801723 -0.8492700458
H  5.1159405708 0.5556100607 2.2217803001
H  6.6354508400 0.9531600475 1.5662001371
H  5.4870104790 1.2387801409 -1.6086301804
