17

C  0.9871600866 0.0067900009 0.1369400173
C  2.5200002193 0.0000000000 0.0000000000
C  3.1265003681 -0.7498500347 1.1993900537
C  2.8848202229 -0.7550200820 -1.2731900215
C  3.5617003441 -0.3134400249 -2.3441903591
C  3.0020201206 1.3611700535 0.0000000000
C  3.3993003368 2.4830701351 0.0000000000
H  0.5112700462 0.5270900130 -0.7038601041
H  0.6708000898 0.5175800323 1.0548001528
H  0.5805000663 -1.0111200809 0.1693500131
H  2.8706102371 -0.2599400282 2.1470201015
H  4.2215304375 -0.7856701016 1.1384800673
H  2.7638902664 -1.7833200693 1.2543700933
H  2.5431101322 -1.7904602289 -1.3031501770
H  3.9446604252 0.6989400387 -2.4163701534
H  3.7488102913 -0.9710600972 -3.1874301434
H  3.7556502819 3.4872102737 -0.0014400001
