18

C  1.5223001242 0.3883800209 1.8360002041
N  2.9494700432 0.1090200096 1.8141701221
C  3.4959304333 0.2692700326 0.4634000361
C  4.9535503387 -0.1454800069 0.4259800315
C  5.9249505997 0.7423700690 0.1503400058
O  5.1386399269 -1.4913600683 0.6808900237
C  6.4726905823 -1.9832102060 0.7168700099
H  1.1392800808 0.2506900132 2.8516800404
H  0.9681200981 -0.2846000195 1.1739300489
H  1.3187100887 1.4239500761 1.5453901291
H  3.1148302555 -0.8581300378 2.0962700844
H  3.3827102184 1.3120601177 0.1427300125
H  2.9444203377 -0.3545700312 -0.2517200112
H  5.6841502190 1.7852300406 -0.0340000018
H  6.9748802185 0.4824100137 0.1104800031
H  6.4317407608 -3.0501704216 0.9560200572
H  7.0547008514 -1.4854900837 1.4995400906
H  6.9554605484 -1.8762601614 -0.2600100338
