13

C  0.9216500521 0.0338700041 -0.0090600001
C  2.4007701874 -0.0191700011 -0.0017800000
C  3.2721900940 1.0551800728 0.0045000003
O  4.5660901070 0.6372800469 0.0101000005
C  4.5392603874 -0.7217600346 0.0073900004
C  3.2411301136 -1.1576000452 0.0001100000
O  2.8962602615 -2.4536001682 -0.0041800002
H  0.5591500401 1.0658400059 -0.0005000000
H  0.5167300105 -0.4754300416 0.8713700771
H  0.5263700485 -0.4572000504 -0.9041000605
H  3.1349802017 2.1272201538 0.0058100005
H  5.4994807243 -1.2151000500 0.0111600002
H  1.9289602041 -2.5428001881 -0.0092900004
