12

C  3.3093302250 -1.1504200697 -0.1895400286
O  2.5542800426 0.0351900049 0.0415900014
C  3.2430102825 1.2173800468 0.0788600072
C  4.5562105179 1.4275001287 -0.0728800073
C  5.0807900429 2.8031303883 0.0066400007
O  6.2763104439 3.0348203182 -0.1268000156
H  2.6159303188 -1.9964401722 -0.1904900223
H  4.0391502380 -1.3108501434 0.6106500626
H  3.8025703430 -1.1150801182 -1.1663601398
H  2.5312800407 2.0173201561 0.2606200278
H  5.2856302261 0.6508700252 -0.2541800141
H  4.3444404602 3.6032102108 0.1908400208
