17

C  2.5864403248 -1.1446100473 1.7505201101
C  2.7901501656 -0.8195000887 0.2968200147
C  2.5813803673 -1.7337400913 -0.6669100523
C  3.2177500725 0.5913300514 -0.0116900010
N  4.6467103958 0.6668400168 0.1789800227
C  5.3095502853 1.8438301086 0.2610700130
N  6.5773105621 1.9896701574 0.1284500062
H  1.7961601019 -0.5144200325 2.1719501019
H  3.5076203346 -0.9726901054 2.3163702488
H  2.2943100929 -2.1894500256 1.9012101889
H  2.2668900490 -2.7462804317 -0.4311500490
H  2.7250602245 -1.4969201088 -1.7169201374
H  2.6898603439 1.2965301275 0.6409900784
H  2.9713301659 0.8593700528 -1.0456700325
H  5.1629500389 -0.1322100163 -0.1671600044
H  4.6677002907 2.7181003094 0.4647100270
H  7.0118503571 1.0798801184 -0.0370100029
