11

N  1.0775700808 0.0159500018 -0.1966300160
C  2.4400303364 -0.0210300032 -0.1049500033
C  3.1355602741 -1.1700900793 -0.0507600047
C  4.5135307312 -0.7187600732 0.0243900027
O  5.5320606232 -1.3628901243 0.0923500061
C  4.4143705368 0.7678100467 0.0135200005
N  3.1837100983 1.1410501003 -0.0529900044
H  0.6037100554 -0.7742700577 0.2269100100
H  0.7261600494 0.9157500267 0.1217600033
H  2.8027503490 -2.1884901524 -0.0771100074
H  5.3261604309 1.3756500483 0.0649200082
