15

C  1.4499801397 0.1364800185 0.5221100450
C  2.7295100689 -0.1026000082 -0.1992700100
C  3.4752101898 1.0193101168 -0.8703100681
C  4.0639705658 0.3856600225 0.3660600185
C  4.8904905319 -0.8126000762 0.2505700290
C  4.2115101814 -1.8026800156 -0.3326500356
O  2.9101202488 -1.4733700752 -0.7054700851
H  1.3985900879 1.1490701437 0.9350700378
H  1.3386700153 -0.5722000599 1.3487100601
H  0.6032400131 0.0043400000 -0.1583900154
H  3.0832700729 2.0255501270 -0.7798001170
H  3.9378702641 0.8213200569 -1.8306500912
H  4.0633802414 0.9207100868 1.3057501316
H  5.9124007225 -0.8753901124 0.5958200693
H  4.5189905167 -2.8044502735 -0.5735800862
