13

N  1.0092000961 -0.1270900071 0.2674600184
C  2.3490302563 -0.0511400029 -0.0096000005
N  2.9722101688 -1.1578099728 -0.2759100199
C  3.1185002327 1.2505400181 0.0000000000
C  2.4538602829 2.4167301655 -0.0199100021
C  4.5245003700 1.2505400181 0.0000000000
C  5.7146601677 1.2505400181 0.0000000000
H  0.6435600519 0.6127900481 0.8557600975
H  0.6747600436 -1.0358000994 0.5604500771
H  2.3151400089 -1.9371701479 -0.2793700099
H  1.3737800121 2.4762401581 -0.0672900006
H  2.9902701378 3.3613302708 -0.0276100021
H  6.7791204453 1.2333301306 -0.0047600004
