13

O  1.0844401121 0.3676200211 -0.8715400696
C  2.0398702621 0.2787900269 -0.1020500064
C  3.1982302666 1.2671900988 -0.0265400019
O  3.6606802940 1.3417201042 1.3359200954
C  3.5259201527 2.6985402107 1.7993000746
C  2.9887602329 3.4642901421 0.6525200605
C  2.8017799854 2.6522402763 -0.3847000301
H  2.1525700092 -0.6128200293 0.5384700298
H  4.0183205605 0.8944000602 -0.6469700933
H  4.5093803406 3.0634002686 2.1088800430
H  2.8443701267 2.7126801014 2.6541302204
H  2.7741901875 4.5223803520 0.6702900529
H  2.4055700302 2.9375901222 -1.3489601612
