12

O  1.2289800644 -0.1526000202 -0.4341500401
C  2.4147801399 0.0752700046 -0.2694500089
C  2.9390201569 1.3626501560 0.2539200187
C  4.2708206177 1.2761100531 0.1406000108
C  4.7282199860 -0.0016500001 -0.3952000439
C  4.4213800430 -1.2662301064 0.3379300237
N  3.5045404434 -0.7356500626 -0.6167700291
H  2.3218801022 2.1705002785 0.5997500420
H  4.9545207024 2.0673000813 0.4189600348
H  5.3848404884 -0.0011400002 -1.2551901340
H  4.8921303749 -2.1852502823 0.0169400014
H  4.0876402855 -1.2382801771 1.3668500185
