17

O  2.7966401577 1.8078001738 -1.6026201248
C  2.2925701141 1.5724802017 -0.5104400516
C  3.0109403133 0.9121500254 0.6374700665
C  4.4636602402 0.5669800043 0.3529700339
C  5.4777903557 1.7429901361 0.3129700124
C  6.4885501862 0.7991100550 0.9947200418
C  5.2786502838 0.0254000016 1.5570302010
H  1.2397000790 1.8393301964 -0.3108400106
H  2.4546000957 -0.0006600001 0.8802601099
H  2.9320402145 1.5852401257 1.4995200634
H  4.5556502342 -0.0912800059 -0.5227200389
H  5.1993203163 2.6060802937 0.9301600456
H  5.7585306168 2.0948402882 -0.6829200387
H  7.0946502686 0.2188000232 0.2905600071
H  7.1451902390 1.2600400448 1.7368601561
H  5.3922805786 -1.0608000755 1.6021400690
H  4.9434704781 0.3886800110 2.5362803936
