11

N  1.0356501341 -0.0004000000 -0.2589800358
C  2.2978000641 -0.0544700064 -0.0133300014
C  3.1459803581 -1.2476701736 0.1394100040
C  4.3715806007 -0.7668700814 0.3836400211
N  4.4266605377 0.6004300117 0.4089700282
C  3.1996500492 1.1583101749 0.1755400151
O  2.8457703590 2.3128001690 0.1188100055
H  0.7607500553 0.9935001135 -0.3020100296
H  2.8035399914 -2.2628300190 0.0617800057
H  5.2679705620 -1.3498800993 0.5523000360
H  5.2547903061 1.1553801298 0.5764499903
