19

C  2.8801202774 -0.7537600398 1.3821001053
N  2.6006300449 -0.1338099986 0.0910800025
C  3.0269804001 1.2803701162 0.0572100058
C  4.5739207268 1.4873501062 0.0252000019
N  5.1825404167 0.5861200690 -0.9654000998
C  4.9206905365 2.9397501945 -0.1959300190
C  5.7056403160 3.4565303326 -1.1526401043
H  2.4805603027 -1.7732501030 1.3870401382
H  2.4067902565 -0.2054800093 2.2036800385
H  3.9552702904 -0.8289200664 1.5721402168
H  1.5930501223 -0.1657700092 -0.0684200078
H  2.5854802132 1.8320101500 0.8967400789
H  2.6002302170 1.7167201042 -0.8558000922
H  4.9801502228 1.2093700171 1.0056099892
H  4.7918100357 0.8245000839 -1.8766301870
H  4.7756299973 -0.3370000422 -0.7800400257
H  4.4907507896 3.6299402714 0.5277100205
H  6.1951103210 2.8319702148 -1.8927701712
H  5.8938407898 4.5245800018 -1.2004201412
