15

C  0.8500000834 0.9009801149 -0.7856400609
O  -0.0393500030 1.0402600765 0.3272000253
C  0.6392600536 -0.2203200161 0.1935800165
C  1.5597900152 -0.5443500876 1.3355600834
C  1.0671501160 -0.3627300560 2.7787902355
C  1.5762500763 -1.7802500725 2.9956102371
O  1.7889500856 -1.9654401541 1.5765200853
H  0.4091200233 0.8119300604 -1.7708401680
H  1.7784202099 1.4558600187 -0.7543200254
H  0.0470200032 -1.0801900625 -0.0950300097
H  2.5333900452 -0.0595600046 1.1747701168
H  -0.0156800002 -0.2512800097 2.8928902149
H  1.5821101665 0.4129700363 3.3505702019
H  2.5141501427 -1.8638601303 3.5514702797
H  0.8404501081 -2.4834601879 3.3934202194
