15

C  2.4899201393 -0.5878600478 -1.3979101181
C  2.4884002209 0.0279400032 -0.0081900004
C  3.4918801785 1.1646600962 0.0740100071
O  3.0470402241 2.3366703987 -0.6595100760
C  3.0332603455 3.2034802437 0.5007700324
C  3.4492702484 2.0056102276 1.3465200663
O  3.6505203247 1.8080401421 2.5245401859
H  1.7800801992 -1.4192202091 -1.4467301369
H  3.4829902649 -0.9693600535 -1.6564900875
H  2.2059402466 0.1488200128 -2.1561901569
H  2.7455401421 -0.7448400855 0.7253800035
H  1.4784501791 0.3798500299 0.2336600274
H  4.5128903389 0.8848400712 -0.2092600167
H  3.7766501904 3.9989101887 0.4315700531
H  2.0367300510 3.5925004482 0.7141400576
