16

C  2.0233502388 -0.1699200124 -0.0415500030
C  0.7370100617 -0.9029700756 0.2356100231
C  -0.4618300498 -1.4735801220 -0.4799300432
C  -1.6641001701 -0.5643400550 -0.2133700252
C  -1.4750101566 0.6869100332 0.2711500227
C  -0.0775700063 1.2866400480 0.4562700391
N  0.8400200605 0.5172800422 -0.3766900301
H  2.6322803497 -0.5256600380 -0.8648600578
H  2.6012301445 0.2018700242 0.7962900400
H  0.5743800402 -1.0080500841 1.3115401268
H  -0.6755000353 -2.4690001011 -0.0747900009
H  -0.2912700176 -1.5779100657 -1.5574601889
H  -2.6599602699 -0.9590401053 -0.3809700310
H  -2.3239202499 1.3203201294 0.5065800548
H  0.1989800185 1.3122401237 1.5172501802
H  -0.0911300033 2.3201200962 0.0937800035
