16

C  0.9334000349 -0.0718300045 -0.0685900077
C  2.4523000717 0.0358000025 -0.0069500003
C  3.1101701260 -0.7523100376 -1.1329700947
C  2.8499302864 1.4884301424 -0.1200400144
N  3.4987401962 2.0683801174 0.8391200304
N  3.7727200985 3.3659501076 0.5765900612
H  0.4709500372 0.5059600472 0.7386300564
H  0.6120500565 -1.1134800911 0.0318900011
H  0.5430400372 0.3166100085 -1.0154100657
H  2.8017001152 -0.3534300327 0.9576001167
H  2.7925102711 -0.3869900405 -2.1151201725
H  2.8562102318 -1.8147701025 -1.0648300648
H  4.2000603676 -0.6593800783 -1.0848600864
H  2.5663402081 2.0177502632 -1.0494101048
H  4.4613304138 3.7040002346 1.2549500465
H  2.9469702244 3.9474902153 0.7444600463
