17

C  1.0000001192 0.0000000000 0.0000000000
C  2.1901600361 0.0000000000 0.0000000000
C  3.6341602802 0.0000000000 0.0000000000
C  4.2164301872 1.1258500814 0.8516801000
C  5.6332402229 0.6497900486 1.1269500256
C  5.4714508057 -0.8394300938 1.3918701410
C  4.2286801338 -1.2750002146 0.6118800640
H  -0.0656800047 -0.0000300000 0.0002400000
H  4.0081000328 0.1033100113 -1.0270800591
H  3.6674802303 1.2424499989 1.7954001427
H  4.1995801926 2.0908601284 0.3340100348
H  6.2622604370 0.8085700870 0.2434400171
H  6.0932102203 1.1743201017 1.9698201418
H  6.3612408638 -1.4023001194 1.0923100710
H  5.3145503998 -1.0171101093 2.4620602131
H  4.4889502525 -1.9935601950 -0.1731100231
H  3.5282602310 -1.7823500633 1.2872301340
