13

C  1.0015801191 -0.2147500217 0.0028200003
C  2.4875800610 -0.0394800045 0.0031200002
C  3.1390202045 1.1379899979 0.0000000000
C  2.4360201359 2.3556201458 0.0000000000
C  1.8409402370 3.3863301277 0.0000000000
C  4.5450205803 1.1379899979 0.0000000000
C  5.7351803780 1.1379899979 0.0000000000
H  0.7551600337 -1.2817000151 -0.0230600033
H  0.5479000211 0.2483100146 -0.8793600798
H  0.5550800562 0.2045500129 0.9099900723
H  3.0649101734 -0.9621500969 0.0059700008
H  1.3112400770 4.3101506233 -0.0000000000
H  6.8001208305 1.1415001154 -0.0000000000
