17

C  0.9555800557 -0.0492500030 0.0873700082
C  2.4505701065 0.0244400017 -0.0166300014
C  3.1064002514 1.2001401186 -0.0895100087
C  4.6001706123 1.3182799816 -0.2075700164
C  5.3044805527 -0.0057100002 -0.2860300243
C  4.6645703316 -1.1818901300 -0.2106200159
C  3.1751303673 -1.3027800322 -0.0405600034
H  0.4923900366 0.9429800510 0.0798000023
H  0.6631400585 -0.5486000180 1.0165700912
H  0.5448200107 -0.6141200662 -0.7559000850
H  2.5540502071 2.1354601383 -0.0674700066
H  4.9822001457 1.8737900257 0.6562800407
H  4.8376502991 1.8989300728 -1.1059300900
H  6.3838005066 0.0146000013 -0.4096400142
H  5.2300906181 -2.1077902317 -0.2730800211
H  2.7826602459 -1.9113200903 -0.8636800647
H  2.9746401310 -1.8384101391 0.8949601054
