19

C  0.9344600439 1.0850000381 -1.2082000971
N  2.3891303539 1.0152601004 -1.1818600893
C  2.9146103859 1.5953801870 0.0510800034
C  4.4079904556 1.4849901199 0.0400300026
C  5.2446103096 2.5311603546 0.1392900050
C  6.7335305214 2.4224703312 0.1281600147
N  7.2638201714 3.2238202095 -0.9638500810
H  0.5657000542 0.6357100606 -2.1351802349
H  0.5814900398 2.1206903458 -1.1728100777
H  0.4952300489 0.5280300379 -0.3747200370
H  2.7606601715 1.5464501381 -1.9691300392
H  2.5359601974 1.0457301140 0.9207300544
H  2.6002101898 2.6413602829 0.1496200114
H  4.8086004257 0.4779300392 -0.0523700044
H  4.8419904709 3.5371601582 0.2392400205
H  7.0636606216 1.3834700584 0.0177400019
H  7.1283407211 2.7969801426 1.0779601336
H  6.9364104271 2.8271303177 -1.8444101810
H  8.2779808044 3.1319103241 -0.9773500562
