16

C  0.8355801105 -0.1728900075 -0.1052000076
C  2.3554401398 -0.0619100034 0.0104600005
C  3.0383102894 -0.8259500265 -1.1233900785
C  2.7756001949 1.3871901035 -0.0100200009
C  3.4215102196 1.9910701513 1.0003501177
C  3.8026902676 3.3592400551 0.9475001097
N  4.1159505844 4.4761905670 0.9088200927
H  0.3401100039 0.3553400040 0.7170600295
H  0.5202500224 -1.2211501598 -0.0657200068
H  0.4706200361 0.2525100112 -1.0470000505
H  2.6572601795 -0.5234500766 0.9594200850
H  2.7589802742 -0.4259600341 -2.1047902107
H  2.7580204010 -1.8846000433 -1.1000901461
H  4.1288704872 -0.7679200768 -1.0342900753
H  2.5293502808 1.9554301500 -0.9074800611
H  3.6777203083 1.4479600191 1.9032701254
