13

O  3.6326100826 -0.8457601070 -0.5624500513
S  2.6031103134 0.1792000234 0.1370600164
O  1.5201801062 0.4285800457 -0.7833900452
O  2.4022202492 -0.3025700152 1.4823800325
C  3.7068603039 1.6056401730 0.2136000246
C  3.7710604668 2.4346601963 -1.0408800840
C  3.0094602108 2.9385304451 0.1565600038
H  3.5040102005 -1.7262301445 -0.1499000043
H  4.5930204391 1.5054501295 0.8216500878
H  3.2029702663 2.1256201267 -1.9119402170
H  4.7136902809 2.9120602608 -1.2823801041
H  3.4373803139 3.7570703030 0.7238100171
H  1.9269200563 2.9708402157 0.0904200077
