15

C  0.9762000442 -0.1052000076 -0.0373300016
C  2.4900102615 -0.0074900007 0.0960200056
C  3.0273902416 1.4328200817 0.0000000000
N  2.5589802265 2.2659001350 1.1044601202
C  4.4713902473 1.4328200817 0.0000000000
C  5.6615505219 1.4328200817 0.0000000000
H  0.6699800491 -1.1559401751 -0.0600500070
H  0.6316100359 0.3670500219 -0.9631000757
H  0.4645200372 0.3688100278 0.8058000803
H  2.9419302940 -0.6137300134 -0.6995700598
H  2.7970702648 -0.4691300392 1.0432400703
H  2.6704201698 1.8804801702 -0.9350600839
H  2.8574399948 1.8484401703 1.9843001366
H  1.5428200960 2.2789900303 1.1212900877
H  6.7268204689 1.4422800541 0.0029200001
