19

C  0.8746100664 -0.8832800388 0.9928300977
C  2.2200000286 -0.5916100144 0.3461399972
C  2.5079300404 0.9086700678 0.3161200285
N  3.8085203171 1.1621800661 -0.3100000024
N  4.1674003601 2.4648401737 -0.3889600039
C  5.3447303772 2.6463203430 -0.8937100172
C  5.8956208229 4.0278205872 -1.0614200830
H  0.6810300946 -1.9605001211 0.9960800409
H  0.0618100055 -0.3936700225 0.4465000331
H  0.8529800177 -0.5311200023 2.0294601917
H  2.2197902203 -0.9957000613 -0.6731000543
H  3.0061302185 -1.1145401001 0.9026700854
H  2.5098001957 1.3065301180 1.3383600712
H  1.7208701372 1.4280300140 -0.2449200302
H  3.8310503960 0.7068000436 -1.2254000902
H  5.9915704727 1.8107101917 -1.2174301147
H  5.1854505539 4.7793507576 -0.7086700797
H  6.1128702164 4.1952900887 -2.1197001934
H  6.8278307915 4.1081304550 -0.4959600270
