19

C  1.3440501690 0.3327400088 -0.1356500089
N  2.6293201447 0.8319600821 0.3374500275
C  3.4890902042 1.1927300692 -0.7915200591
C  4.7632603645 1.7614101171 -0.2431200147
C  5.9615206718 0.8720100522 0.0107100010
N  5.9469804764 1.8113300800 -1.1058801413
C  6.7621603012 3.0021500587 -0.8790701032
H  0.7059600353 0.1008500084 0.7221700549
H  1.4624000788 -0.5815800428 -0.7254500389
H  0.8235800862 1.0836001635 -0.7388401031
H  3.0884501934 0.1018000096 0.8809400797
H  3.0046701431 1.9564601183 -1.4096901417
H  3.6849904060 0.3164300025 -1.4206401110
H  4.5869708061 2.6028802395 0.4184800386
H  5.8996400833 -0.1755900085 -0.2599400282
H  6.5923604965 1.0853400230 0.8652400374
H  6.3289504051 3.8526601791 -1.4151101112
H  7.7681903839 2.8361403942 -1.2772600651
H  6.8631806374 3.2864501476 0.1755100191
