12

N  1.0064101219 -0.1479100138 0.2319900095
C  2.3616402149 -0.0604800060 0.0530900061
N  3.0215902328 -1.1628900766 -0.1147200093
C  3.1078002453 1.2437500954 0.0356000029
C  2.5224101543 2.3565702438 0.5109500289
C  4.4414601326 1.2873201370 -0.4715100229
N  5.5198807716 1.4067301750 -0.8853500485
H  0.4611800313 0.6610100269 -0.0451700054
H  0.5726100206 -1.0121301413 -0.0689300075
H  2.3973100185 -1.9677500725 -0.0445400029
H  1.5275800228 2.3587601185 0.9403101206
H  3.0515100956 3.3065402508 0.5135700703
