12

N  1.1256300211 -0.0305400006 -0.3427600265
C  2.3473801613 0.0002400000 0.0429000035
N  3.0855302811 -1.0847600698 0.4124300182
C  4.4709501266 -0.6906901002 0.5767800808
C  4.3699102402 0.7983700633 0.4079000354
C  3.1397502422 1.2331601381 0.0992400050
H  0.7873700261 -0.9929600358 -0.2779200077
H  2.8999302387 -1.9588900805 -0.0593100041
H  5.1065702438 -1.1335901022 -0.1953400224
H  4.8377604485 -0.9593300819 1.5709201097
H  5.2239704132 1.4503800869 0.5203300118
H  2.7729701996 2.2232601643 -0.0951100066
