15

C  1.3030900955 0.3655200303 -0.6873100400
C  2.5382003784 -0.4435600340 -0.3372100294
O  3.6694703102 0.4251100123 -0.3939100206
C  4.8935999870 -0.1190200076 -0.1150300130
C  5.2052507401 -1.3777201176 0.2259200215
C  6.5529108047 -1.7554100752 0.4752300382
C  7.6884102821 -2.0807402134 0.6844600439
H  0.4077700377 -0.2621900141 -0.6691300869
H  1.4029101133 0.8109800220 -1.6826001406
H  1.1702800989 1.1910800934 0.0196300019
H  2.6531102657 -1.2594901323 -1.0602600574
H  2.4279201031 -0.8546800613 0.6729000211
H  5.6471004486 0.6571900845 -0.2114200294
H  4.4509205818 -2.1490499973 0.3230400085
H  8.6973505020 -2.3680100441 0.8689200878
