19

C  2.3928902149 -1.4366900921 -0.4706800282
C  1.8428701162 -0.0739000067 -0.0743100047
O  0.9454400539 -0.2182100266 1.0226900578
C  2.9217703342 0.9374901056 0.2845900059
C  3.9264802933 0.5133100748 1.3283500671
C  3.4169504642 1.8586502075 -0.8136200905
C  2.5260300636 2.4011001587 0.2664700150
H  3.1126701832 -1.3523401022 -1.2902601957
H  1.5769101381 -2.0959103107 -0.7859200835
H  2.8814702034 -1.9349402189 0.3732000291
H  1.2453900576 0.3062100112 -0.9115800858
H  1.4437401295 -0.6007700562 1.7623602152
H  4.6085700989 1.3303700686 1.5895901918
H  4.5400404930 -0.3157800436 0.9621200562
H  3.4272804260 0.1980600208 2.2495501041
H  2.9992702007 1.7598900795 -1.8097501993
H  4.4581799507 2.1624200344 -0.8103300333
H  2.9620001316 3.0697202682 1.0003300905
H  1.5027700663 2.6538703442 0.0082100006
