17

C  1.1155401468 -0.1026500016 0.0406000055
C  2.5840001106 -0.2845300138 -0.1402800232
C  3.1424903870 -0.6210600734 -1.4945201874
C  3.3874602318 0.7487800717 -0.8994300961
C  4.7652807236 1.1233100891 -0.4852800369
C  4.9718203545 1.4160801172 0.9723001122
O  5.6631503105 1.1819301844 -1.3164000511
H  0.9202700853 0.5307300091 0.9113800526
H  0.6341100931 -1.0710301399 0.2081000209
H  0.6469900608 0.3641900420 -0.8320500851
H  3.0325002670 -0.7759200335 0.7159100175
H  2.4686100483 -0.6872300506 -2.3411602974
H  3.9777202606 -1.3118000031 -1.5476300716
H  2.8495903015 1.5675101280 -1.3681300879
H  4.0943703651 1.9201401472 1.3859500885
H  5.8345208168 2.0772602558 1.0908200741
H  5.1531906128 0.4825000465 1.5100600719
