17

C  2.8078501225 -1.0078300238 -0.7348600626
C  2.4581201077 0.0381500050 0.3189500272
C  3.0273902416 1.4328200817 0.0000000000
C  2.5402100086 2.4306302071 1.0249401331
C  1.7851101160 3.5019803047 0.7443300486
C  4.4713902473 1.4328200817 0.0000000000
C  5.6615505219 1.4328200817 0.0000000000
H  2.3111400604 -1.9554102421 -0.5026200414
H  3.8850002289 -1.1989101171 -0.7686300874
H  2.4819402695 -0.6888700724 -1.7298800945
H  2.8171801567 -0.3134200275 1.2953701019
H  1.3641800880 0.0986000076 0.3887400329
H  2.6690402031 1.7302401066 -0.9943500757
H  2.8301701546 2.2533502579 2.0597400665
H  1.4695100784 3.7298803329 -0.2689400017
H  1.4712201357 4.1799902916 1.5319601297
H  6.7270903587 1.4360901117 0.0010600002
