12

O  1.0475200415 -0.2256500125 0.1379600018
N  2.4469802380 -0.1494900137 0.1100800112
C  2.8648302555 1.0619500875 -0.0737400055
C  2.0501000881 2.2950003147 -0.2460800260
C  2.5813803673 3.5101103783 -0.4318800271
C  4.3126902580 1.0585100651 -0.0904200077
C  5.5140004158 1.0532600880 -0.1039100066
H  0.8970000744 -1.1791300774 0.2805800438
H  0.9742200971 2.1665101051 -0.2142400146
H  3.6516504288 3.6837501526 -0.4703400433
H  1.9364001751 4.3751802444 -0.5519400835
H  6.5790004730 1.0369601250 -0.1141600087
