12

C  1.1759501696 -0.3216500282 -0.2276700139
C  2.4328501225 -0.4320700467 0.2115200013
N  3.4372003078 0.4827100337 0.0336400010
C  4.7441105843 0.4476300180 0.4483900368
N  5.3755102158 -0.4543600380 1.1153801680
C  5.5922303200 1.5836601257 0.1065800115
N  6.2021408081 2.5239403248 -0.2042800188
H  0.4520700574 -1.1077501774 -0.0322000012
H  0.8317101002 0.5418200493 -0.7872400880
H  2.7189702988 -1.3220101595 0.7674800754
H  3.1584501266 1.3111701012 -0.4876100421
H  4.7437205315 -1.2268000841 1.3310900927
