17

C  1.3491501808 2.8795802593 -0.5613900423
O  2.6265203953 2.8249502182 0.0587900057
C  3.3015902042 1.6032100916 -0.2397800237
C  4.6246104240 1.6213301420 0.4452700317
O  5.7056603432 1.0415101051 -0.3016300201
C  5.7553100586 2.4585700035 -0.0892500132
C  6.8518505096 2.9167702198 0.8032600284
H  0.9010900259 3.8517203331 -0.3400200307
H  0.6991100907 2.0954201221 -0.1624600142
H  1.4417601824 2.7774503231 -1.6468201876
H  3.4198501110 1.5063301325 -1.3257300854
H  2.7103500366 0.7565100193 0.1267300099
H  4.5621304512 1.4312100410 1.5075901747
H  5.5716900826 3.1208403111 -0.9245100617
H  7.1087303162 2.1659803391 1.5582500696
H  6.5563707352 3.8342404366 1.3219500780
H  7.7512307167 3.1306200027 0.2171200216
