14

O  0.8744200468 -0.0308000017 0.1497900039
C  2.3157901764 -0.0057400004 0.0058000004
C  3.0445601940 1.0592700243 0.8789500594
C  4.1028804779 -0.0028900004 1.2262700796
C  3.0774402618 -1.0821700096 0.8358400464
C  2.6723902225 0.0282800011 -1.4098401070
N  2.9899902344 0.0556700043 -2.5266702175
H  0.7061300278 -0.0532400049 1.1067399979
H  2.4616901875 1.3983600140 1.7438601255
H  3.4300704002 1.9419001341 0.3592300117
H  4.9836702347 0.0237400029 0.5746000409
H  4.4338903427 -0.0187900010 2.2678303719
H  3.4894404411 -1.9309401512 0.2812400460
H  2.5057599545 -1.4734700918 1.6860401630
