15

C  0.9409300685 0.0564700030 0.0574800037
C  2.2711603642 0.0059000002 0.1375300139
O  2.9771702290 1.1360400915 0.5215100050
C  4.2364702225 1.2529602051 -0.1529400200
C  5.1350607872 0.0430100039 0.1047900096
C  4.3636202812 -1.2255901098 -0.0913100019
C  3.0244603157 -1.2118999958 -0.0976800099
H  0.4171200395 0.9843400717 0.2665300369
H  0.3441900313 -0.8045600653 -0.2166600078
H  4.7269301414 2.1614403725 0.2139900178
H  4.0561604500 1.3972100019 -1.2275400162
H  5.5162701607 0.0638800040 1.1314800978
H  5.9925704002 0.0757800117 -0.5751500726
H  4.9098305702 -2.1531100273 -0.2267200202
H  2.4730601311 -2.1341302395 -0.2532300353
