14

N  0.9346700311 0.1168500111 0.0992700085
C  2.3907101154 -0.0058000004 -0.0725100040
C  3.1253104210 0.9506601095 0.8774400949
O  3.9425902367 -0.1442500055 1.3813101053
C  2.9768903255 -1.1034901142 0.8475900292
C  3.6655902863 -2.1870102882 0.1816700101
C  4.2356700897 -3.0910100937 -0.3683000505
H  0.4131800532 -0.6531400084 -0.3210000098
H  0.5466700792 0.9669800997 -0.3093700409
H  2.7432401180 0.0075100008 -1.1080200672
H  2.5463402271 1.4070701599 1.6876600981
H  3.7340703011 1.7141600847 0.3848900497
H  2.3172402382 -1.4467900991 1.6555401087
H  4.7489404678 -3.8910903931 -0.8486900926
