17

C  1.0104600191 -0.0257700030 -0.0721100047
C  2.5323002338 0.0126400013 0.0985900089
C  2.9369502068 -0.7380800843 1.3742301464
N  3.1855602264 -0.6562700868 -1.0466099977
C  3.0271403790 1.4782701731 0.1533100158
O  4.4535102844 1.5149201155 0.1085000038
H  0.6974400878 0.4870200157 -0.9897700548
H  0.5089200735 0.4666800201 0.7694301009
H  0.6386000514 -1.0556700230 -0.1238600090
H  2.5022501945 -0.2636400163 2.2619099617
H  4.0249104500 -0.7554100752 1.5090401173
H  2.5902700424 -1.7782200575 1.3535901308
H  2.8530602455 -0.2409300208 -1.9182702303
H  2.8913402557 -1.6333202124 -1.0797301531
H  2.6980803013 1.9810301065 1.0688900948
H  2.6565701962 2.0525701046 -0.7035300136
H  4.6965703964 0.7464000583 -0.4494600296
