16

C  0.6318800449 0.2667100132 -0.0363899991
C  2.0768001080 -0.0184600018 0.2162100077
C  3.0698602200 0.8436400294 -0.0495300032
C  4.5282506943 0.5491900444 0.1945100129
C  5.1481604576 1.5152400732 1.2045301199
O  4.6704006195 1.2558901310 2.5207202435
H  0.2258300185 -0.4644000232 -0.7420300841
H  0.4740200341 1.2670900822 -0.4515700340
H  0.0690000057 0.1927200109 0.8988000751
H  2.3060500622 -0.9952600598 0.6391300559
H  2.8387501240 1.8164201975 -0.4813500345
H  5.0568003654 0.6379200220 -0.7614900470
H  4.6545901299 -0.4809800386 0.5487500429
H  4.9340205193 2.5597603321 0.9539500475
H  6.2349305153 1.3879300356 1.2205801010
H  3.6975603104 1.2660400867 2.4784002304
