13

C  3.0659203529 -1.0676901340 0.5360600352
O  2.2854499817 0.0927900076 0.2794800103
C  3.0533201694 1.1966100931 0.1857500225
C  2.5077602863 2.4333403111 -0.0590000041
N  3.5719702244 3.2888703346 -0.0849900097
C  4.6993002892 2.5493502617 0.1409800202
N  4.4166703224 1.2770501375 0.3088800311
H  2.3860101700 -1.9229402542 0.6002800465
H  3.5943703651 -0.9861900806 1.4926100969
H  3.7708103657 -1.2596200705 -0.2807600200
H  1.4903701544 2.7602102757 -0.2104800045
H  3.5393602848 4.2866802216 -0.2419100106
H  5.6876101494 2.9888002872 0.1715300083
