14

C  0.9092400670 0.3916400373 -0.2793000042
C  2.3543102741 0.0720400065 -0.0125500010
C  2.8474001884 -1.1389800310 0.3151000440
C  2.1062202454 -2.3727302551 0.4505400360
C  2.6858201027 -3.5280601978 0.7988500595
C  3.2739601135 1.1660300493 -0.1108300090
N  4.0169501305 2.0535101891 -0.1908500195
H  0.6048200727 1.2781400681 0.2889500260
H  0.2242900133 -0.4108300209 0.0034300003
H  0.7602400780 0.6017400622 -1.3439100981
H  3.9220802784 -1.2270400524 0.4926400483
H  1.0374001265 -2.3757901192 0.2571700215
H  3.7485601902 -3.6083402634 1.0052800179
H  2.0958001614 -4.4359207153 0.8864700794
