10

O  0.8616100550 1.2301701307 -0.0053000003
C  2.0206401348 0.8342400789 -0.0034300003
N  3.0853703022 1.6851201057 -0.0019100002
C  4.3864202499 1.2637200356 -0.0007300000
O  4.7569704056 0.0987500101 -0.0001100000
C  5.3688902855 2.3249802589 -0.0001000000
C  6.1846804619 3.2066802979 0.0004100000
H  2.2869801521 -0.2357400209 -0.0029300002
H  2.8713200092 2.6705601215 -0.0024800003
H  6.9194703102 3.9790003300 0.0008600001
