14

O  0.9711200595 0.5456700921 0.8358600736
C  1.9827001095 0.0868600085 0.0447800048
O  1.8997502327 -1.0126501322 -0.4962000251
C  3.1804304123 1.0613601208 -0.0832500011
C  2.8597302437 2.5344603062 -0.4223200083
N  2.7948801517 2.7854001522 1.0437201262
C  3.7494602203 1.6572002172 1.2240500450
H  1.1936300993 1.4375801086 1.1908601522
H  3.9554803371 0.6317300200 -0.7310000658
H  1.9235801697 2.7181801796 -0.9566600919
H  3.6710803509 3.0694403648 -0.9304700494
H  3.1620802879 3.6962404251 1.3306301832
H  4.8040900230 1.9523200989 1.1660900116
H  3.5938503742 1.0713200569 2.1341001987
