18

C  1.4272900820 2.6553502083 -1.4046000242
C  2.5705602169 2.3794801235 -0.4476000369
O  3.6987001896 1.9595701694 -1.2107000351
C  4.8387799263 1.6272602081 -0.4131000340
C  5.7538104057 0.7688300610 -1.2797201872
C  5.5694608688 2.8881502151 0.0380900055
H  0.5346400142 2.9804704189 -0.8628500104
H  1.1827801466 1.7582401037 -1.9829702377
H  1.7062801123 3.4321901798 -2.1243402958
H  2.2830302715 1.5894100666 0.2543900311
H  2.8054304123 3.2900402546 0.1112700030
H  4.5277304649 1.0364800692 0.4573300183
H  6.0583505630 1.3073601723 -2.1838703156
H  5.2270803452 -0.1320300102 -1.6127600670
H  6.6511306763 0.4644100368 -0.7325600386
H  5.7903504372 3.5383203030 -0.8151800632
H  6.5066604614 2.6424503326 0.5467600226
H  4.9562606812 3.4725701809 0.7304600477
