16

C  2.5733501911 -1.1530400515 0.1669300050
O  3.8172802925 -0.4896400571 0.3654200137
C  3.7453203201 0.8866000175 -0.0314700007
C  5.0853900909 1.5567401648 0.2251100242
C  6.1226305962 1.0999600887 -0.7721700072
N  6.4564805031 -0.2192900181 -0.6940600276
O  6.6578803062 1.8494400978 -1.5804901123
H  2.6973001957 -2.2024002075 0.4449500442
H  2.2747399807 -1.1024900675 -0.8841301203
H  1.8010001183 -0.7103000879 0.8018900752
H  2.9708502293 1.3844000101 0.5640600324
H  3.4752902985 0.9470000863 -1.0923501253
H  5.4541101456 1.3351000547 1.2327899933
H  4.9818506241 2.6433300972 0.1291000098
H  5.8331904411 -0.8609700203 -0.2121600211
H  7.0837802887 -0.5880600214 -1.3952500820
