15

C  0.9996400476 -0.0539700016 0.0026800002
C  2.5200002193 0.0000000000 0.0000000000
C  3.0020201206 1.3611700535 0.0000000000
C  3.3993003368 2.4830701351 0.0000000000
C  3.8813202381 3.8442401886 0.0000000000
N  2.7658200264 4.7722606659 -0.1117200106
H  0.6576900482 -1.0928500891 0.0021900004
H  0.5855900049 0.4418100417 -0.8810400367
H  0.5888000727 0.4399000406 0.8889500499
H  2.8958201408 -0.5328400135 -0.8806800842
H  2.8990001678 -0.5340300202 0.8785901070
H  4.5719504356 4.0055503845 -0.8344600201
H  4.4305400848 4.0558900833 0.9230400920
H  2.2633302212 4.5769505501 -0.9760700464
H  3.1283903122 5.7189307213 -0.1958300173
