16

C  1.4467000961 -0.5990600586 -0.4539800286
C  2.9171004295 -0.3510000408 -0.1693100184
C  3.2459104061 1.1255700588 -0.0219000019
O  2.3848302364 2.0004501343 -0.0995700061
C  4.7093305588 1.4482800961 0.2313800156
C  4.9652104378 2.9376702309 0.3748900294
H  1.2535800934 -1.6714601517 -0.5535400510
H  1.1382100582 -0.1079200059 -1.3825900555
H  0.8187000751 -0.2118400186 0.3549200296
H  3.5205602646 -0.7552101016 -0.9889600873
H  3.2015001774 -0.8579700589 0.7588200569
H  5.2950401306 1.0558201075 -0.6065100431
H  5.0189504623 0.9341000915 1.1472800970
H  4.6664404869 3.4772002697 -0.5298900008
H  6.0287404060 3.1265003681 0.5502300262
H  4.4005398750 3.3541703224 1.2154901028
