17

C  1.1997100115 0.1443600059 0.5310600400
C  2.6013400555 0.2073000222 -0.0445200019
N  3.0141100883 -0.7774300575 -0.7800800204
N  3.3746502399 1.3087401390 0.2536200285
C  2.8171501160 2.6124801636 0.0244300030
C  4.2147002220 3.0628001690 -0.4018100202
C  4.5261306763 1.5752201080 -0.5661100745
H  1.1115601063 0.7885400653 1.4102300406
H  0.9596300721 -0.8816300631 0.8248600364
H  0.4868900478 0.4727300406 -0.2306500226
H  2.2861201763 -1.4933100939 -0.8662000299
H  2.4241800308 3.0769100189 0.9317600727
H  2.0713002682 2.6388401985 -0.7775100470
H  4.2622404099 3.6621701717 -1.3145101070
H  4.7883205414 3.5570101738 0.3901000023
H  4.4418706894 1.2212500572 -1.5991401672
H  5.4595103264 1.2303000689 -0.1155900061
