15

C  2.9359202385 -0.8783700466 0.5072300434
C  2.5414001942 0.3870700300 0.6873100400
O  3.2221102715 1.5453101397 0.4430500269
C  4.5428800583 1.4264301062 -0.0937700048
C  5.1058001518 2.8295001984 -0.3032900095
C  6.4491305351 2.7883400917 -0.8980700970
C  7.5450506210 2.7548303604 -1.3883202076
H  2.2640602589 -1.6946401596 0.7539900541
H  3.9113101959 -1.1464700699 0.1205200106
H  1.5578601360 0.6275200844 1.0783500671
H  4.5081501007 0.8939100504 -1.0527900457
H  5.1812705994 0.8714200854 0.6054800749
H  5.1318707466 3.3604001999 0.6557800174
H  4.4271502495 3.4049401283 -0.9442700744
H  8.5165109634 2.7264802456 -1.8253301382
