16

N  2.9671304226 -1.0082401037 -0.5585600138
C  2.3751401901 0.0875000060 0.1924700141
C  3.3268103600 1.2398000956 0.1771900058
C  3.4172902107 2.1417500973 -1.0284000635
C  2.8011102676 2.6510500908 0.2434300184
N  3.5142102242 3.6530904770 1.0300000906
H  2.3346602917 -1.8054300547 -0.5405000448
H  3.8220403194 -1.3129000664 -0.0998500064
H  2.1859803200 -0.2247100174 1.2246900797
H  1.4136201143 0.3569300175 -0.2577100098
H  4.2469902039 1.0140300989 0.7037600279
H  2.7599701881 1.9431201220 -1.8677501678
H  4.3969302177 2.5011501312 -1.3195201159
H  1.7212901115 2.7856101990 0.2298100144
H  4.5240502357 3.5386202335 0.9531600475
H  3.2939403057 3.5606002808 2.0208101273
