19

C  0.9713200331 -0.0860800073 0.0024500003
C  2.4858500957 0.0267500021 0.0403000005
C  3.1991202831 1.1372200251 0.8791100979
N  2.4257102013 1.5003901720 2.0795502663
C  4.1949501038 0.0026200004 1.2426201105
N  3.1099002361 -0.9820801020 0.9515100718
C  3.6393704414 -2.1097202301 0.1919800192
H  0.6653200388 -0.9662900567 -0.5734400153
H  0.5366800427 0.7935800552 -0.4834200442
H  0.5296500325 -0.1739300191 1.0005500317
H  2.8770804405 0.0114900004 -0.9896301031
H  3.6046602726 1.9858701229 0.3249800503
H  2.1510503292 0.6675500274 2.6076302528
H  1.5546301603 1.9834501743 1.8690501451
H  5.0615401268 -0.0365200043 0.5696600080
H  4.5658607483 -0.0178500023 2.2728102207
H  2.8158302307 -2.7354600430 -0.1683800220
H  4.2618999481 -2.7353203297 0.8407800794
H  4.2438707352 -1.8156201839 -0.6743500233
