18

C  0.5974600911 0.7390600443 0.0834200010
N  1.8298401833 0.7811600566 -0.6849500537
C  2.9779601097 1.3838801384 0.0387400016
C  3.5762903690 0.5894900560 1.1934801340
O  3.6160702705 -0.7975100875 0.8696700335
C  3.9351003170 2.1875700951 -0.8178300858
C  3.0240602493 2.8928601742 0.1404900104
H  0.7007200718 0.1346700191 0.9891600609
H  -0.1969000101 0.2982700467 -0.5264200568
H  0.2745200098 1.7460001707 0.3648600280
H  2.0800502300 -0.1401499957 -1.0440500975
H  2.9747102261 0.7175800204 2.0994901657
H  4.5984907150 0.9102300406 1.4192800522
H  2.6898903847 -1.0726200342 0.7740200758
H  3.7232503891 2.2819702625 -1.8773001432
H  4.9938902855 2.1570801735 -0.5883900523
H  3.4662101269 3.3413202763 1.0226401091
H  2.2014901638 3.4641003609 -0.2751000226
