10

C  0.9710100293 0.0084300013 0.0000000000
C  2.3078100681 0.0168200005 -0.0000000000
C  3.0427603722 1.2314300537 -0.0000000000
C  3.6683101654 2.2568202019 -0.0000000000
C  4.4253401756 3.4816403389 -0.0000000000
O  3.8670201302 4.5689306259 -0.0000000000
H  0.4235600531 -0.9283100963 0.0000000000
H  0.3920000494 0.9275300503 0.0000000000
H  2.8597104549 -0.9184800982 -0.0000000000
H  5.5206103325 3.3647503853 -0.0000000000
