13

O  1.3222600222 -0.5943500400 -0.9200400710
C  2.6872403622 -0.1950800270 -0.9001600742
C  2.9115004539 0.9835100174 0.0406500064
O  1.9873101711 1.3953700066 0.7507400513
C  4.2533202171 1.6816500425 -0.0010700001
C  5.3888206482 0.7494800687 -0.0254600011
C  6.3232202530 -0.0034300003 -0.0544100069
H  0.8885100484 -0.1259300113 -0.1768900156
H  2.9692502022 0.0922200084 -1.9163401127
H  3.2859303951 -1.0474100113 -0.5693500638
H  4.3286604881 2.3248801231 0.8841900826
H  4.2662501335 2.3273801804 -0.8847000599
H  7.1572804451 -0.6679100394 -0.0790800080
