14

C  1.0010000467 -0.0542300008 0.0030900002
C  2.5200002193 0.0000000000 0.0000000000
C  3.0020201206 1.3611700535 0.0000000000
C  3.3993003368 2.4830701351 0.0000000000
C  3.9452803135 3.8174104691 0.0000000000
N  5.3024306297 3.8974301815 0.0000000000
O  3.2186603546 4.7994403839 0.0000000000
H  0.6576600075 -1.0936601162 0.0024000001
H  0.5849600434 0.4418400228 -0.8807300329
H  0.5886900425 0.4394200444 0.8900001049
H  2.8956403732 -0.5327200294 -0.8808400631
H  2.8993101120 -0.5341000557 0.8784300685
H  5.8858804703 3.0733702183 0.0000000000
H  5.7283506393 4.8129701614 0.0000000000
