13

O  0.9803701043 -0.0574800037 -0.1398200095
C  2.3673202991 -0.0132800015 0.0949400067
C  3.0380902290 -1.2107499838 -0.5377500057
C  3.9583802223 -0.8343200684 -1.4381800890
N  4.0269503593 0.5258000493 -1.5189701319
C  3.0720202923 1.0982201099 -0.7238400578
N  2.7219703197 2.3352901936 -0.6461700797
H  0.7007900476 0.8773100972 -0.1041800082
H  2.5879700184 0.0837400034 1.1610901356
H  2.7747902870 -2.2289900780 -0.2965500057
H  4.5746502876 -1.4633101225 -2.0647001266
H  4.4694504738 0.9839500785 -2.3009700775
H  3.3073501587 2.8876001835 -1.2787801027
