13

N  3.2970101833 -1.3440300226 0.0294500031
C  2.5976500511 -0.1803700179 -0.0659700036
N  1.3053001165 -0.2107900083 -0.1175800115
C  3.2281904221 1.1607600451 -0.1277500093
C  4.5330104828 1.3482100964 0.0948900133
C  5.0887103081 2.7116000652 0.0322700031
O  6.2830500603 2.9138503075 0.2113800049
H  4.2465300560 -1.3383001089 -0.3246400356
H  2.8019301891 -2.1876702309 -0.2310600132
H  0.9773300886 -1.1744600534 -0.0337500051
H  2.5458302498 1.9784601927 -0.3395700157
H  5.2323002815 0.5609300733 0.3412000239
H  4.3792300224 3.5265104771 -0.1879700124
