11

C  1.0080300570 0.0301500019 -0.0057900008
C  2.4848701954 0.0642600060 -0.0016600002
N  3.2803502083 1.0870000124 0.0004800000
C  4.5491805077 0.5247500539 0.0020200002
N  4.6325306892 -0.7718500495 0.0008000000
C  3.3238201141 -1.1785000563 -0.0018700002
O  2.8621602058 -2.3016002178 -0.0042300005
H  0.6089800596 1.0475701094 0.0056000007
H  0.6514100432 -0.5049500465 0.8780500293
H  0.6565400362 -0.4830100238 -0.9045700431
H  5.4398603439 1.1735200882 0.0041700001
