17

C  1.8058301210 -0.8668900728 0.1224100143
C  3.1394102573 -0.4896900356 0.7484800816
N  3.7668602467 0.5780100822 -0.0317900032
C  5.0661902428 0.9575900435 0.5728200674
C  5.7789001465 2.0138401985 -0.2792300284
N  5.2140707970 2.2642700672 -1.4976902008
O  6.7956004143 2.5965402126 0.0819700062
H  1.3355101347 -1.6723101139 0.6952900887
H  1.9373000860 -1.2177700996 -0.9066501260
H  1.1174800396 -0.0154100014 0.1098900065
H  3.7853403091 -1.3749001026 0.7678200603
H  2.9736602306 -0.1645500064 1.7822401524
H  3.1626300812 1.4025000334 -0.0112800011
H  5.7285203934 0.0874800086 0.6325400472
H  4.9110207558 1.3777900934 1.5722202063
H  4.5263504982 1.6030801535 -1.8429001570
H  5.7098307610 2.8620700836 -2.1429400444
