18

C  1.5511701107 -0.5958000422 -0.9946300983
O  2.2738201618 -0.0859200060 0.1171500087
C  3.0327601433 1.1388700008 -0.0807200000
C  4.2690205574 0.8693400621 -0.9359900355
C  2.2293100357 2.4182403088 -0.4447500408
N  2.9928700924 3.1817901134 0.5642200112
C  3.3504402637 1.9105401039 1.2315601110
H  0.9154200554 -1.4137401581 -0.6454500556
H  2.2403001785 -0.9884300828 -1.7465400696
H  0.9155900478 0.1770300120 -1.4347101450
H  4.9113903046 1.7532001734 -1.0156201124
H  3.9895803928 0.5797700882 -1.9539201260
H  4.8684401512 0.0608000048 -0.5043100119
H  1.1577501297 2.3626501560 -0.2188800126
H  2.3446102142 2.7819802761 -1.4705901146
H  3.7995004654 3.6716902256 0.1766300052
H  4.3849301338 1.8606901169 1.5858300924
H  2.6901202202 1.6631101370 2.0715601444
