17

N  2.4073500633 -0.4324200153 1.4907001257
C  2.4899899960 0.0282700025 0.1139900014
C  3.0334000587 1.4091001749 0.0290800016
C  4.1744403839 1.8039201498 -0.5440000296
C  4.3487801552 3.2701401711 -0.4044800401
N  3.0678703785 3.7712702751 0.1270200163
C  2.3210101128 2.5861701965 0.5981900692
H  2.1057600975 -1.4050101042 1.4985401630
H  1.6868001223 0.0896700099 1.9844402075
H  1.4981300831 -0.0100600002 -0.3500300050
H  3.1296303272 -0.6628200412 -0.4470600486
H  4.8969202042 1.1545001268 -1.0157700777
H  5.1630306244 3.4989902973 0.2903700173
H  4.5683803558 3.7377202511 -1.3694201708
H  2.5480301380 4.1734905243 -0.6516900659
H  1.2836900949 2.6363403797 0.2511600256
H  2.3260102272 2.5592300892 1.6926001310
