18

C  -1.2388300896 -0.7750700712 -0.5300200582
C  -1.2050101757 0.7534600496 -0.5144600272
N  -0.0058000004 1.0861101151 0.3055200279
C  1.2047300339 0.7569700480 -0.4978800416
C  1.2466700077 -0.7726300359 -0.5075200200
C  -0.0022700001 -1.1209501028 0.3019100130
C  -0.0120000010 0.0008200001 1.3234900236
H  -1.1891100407 -1.1839700937 -1.5439001322
H  -2.1490602493 -1.1432901621 -0.0443100035
H  -2.1045901775 1.1525800228 -0.0310200024
H  -1.1565001011 1.1857401133 -1.5200002193
H  2.0964601040 1.1626200676 -0.0056800004
H  1.1660801172 1.1848101616 -1.5061001778
H  2.1503200531 -1.1334600449 -0.0039600004
H  1.2192301750 -1.1844900846 -1.5219601393
H  -0.0044800001 -2.1364102364 0.7022800446
H  -0.9092100859 0.0261700023 1.9530601501
H  0.8749700785 0.0291700009 1.9667000771
