18

C  1.0264600515 -0.0954400077 0.0304400008
N  2.4818501472 -0.0341200046 0.0345500037
C  2.9444100857 1.3582701683 -0.0026900002
C  4.4854803085 1.4267200232 -0.0002200000
N  4.9465208054 2.8199400902 -0.0321800001
C  6.4020204544 2.8830003738 -0.0387500003
H  0.7054200768 -1.1414600611 0.0645600036
H  0.6074000597 0.3556100428 -0.8753800392
H  0.6056200266 0.4063600302 0.9082601070
H  2.8375203609 -0.5248400569 -0.7857500911
H  2.5605101585 1.8974301815 0.8726600409
H  2.5612502098 1.8574200869 -0.9019200802
H  4.8687100410 0.8911100626 -0.8775900602
H  4.8692407608 0.9250200987 0.8968600631
H  4.5965905190 3.3046703339 0.7942800522
H  6.8157505989 2.3939702511 -0.9269300699
H  6.8290605545 2.4201402664 0.8572000861
H  6.7212705612 3.9297502041 -0.0611600056
