13

C  0.7350700498 -1.2453200817 0.6097400188
N  -0.5532300472 -1.5146601200 -0.0438200049
N  -1.5773102045 -0.6129800081 0.0421900041
C  -1.2702300549 0.6504100561 0.0593900047
C  0.1216100082 1.1468200684 0.0550100058
O  0.9609400630 0.6422700286 -1.0045100451
C  1.1969701052 0.1417600065 0.3189600110
H  1.4782100916 -1.9731701612 0.2698800266
H  0.6214500666 -1.3735301495 1.6913801432
H  -0.3697800338 -1.7103101015 -1.0325300694
H  -2.0774402618 1.3990201950 0.1000300050
H  0.2769200206 2.1677403450 0.3741800189
H  2.0992901325 0.4325300455 0.8331800103
