17

C  1.0591200590 0.0317500047 -0.2990100384
O  2.4730501175 0.1579200178 -0.2303100228
C  3.0049602985 1.4172301292 -0.0661900043
C  2.3068702221 2.5600700378 0.0351100042
C  4.4590501785 1.4427701235 -0.0052900007
C  5.2610001564 0.3696900308 -0.0858000070
C  6.7518906593 0.4331300259 -0.0190900024
H  0.8219800591 -1.0284000635 -0.4292500317
H  0.6578000784 0.5740500093 -1.1613401175
H  0.5893600583 0.3693400323 0.6305500269
H  1.2257200480 2.5951900482 -0.0042400006
H  2.8050100803 3.5161502361 0.1636500210
H  4.9164400101 2.4236502647 0.1166600063
H  4.8322205544 -0.6233600378 -0.2070200145
H  7.1186108589 1.4579401016 0.0963300094
H  7.1837506294 0.0175300017 -0.9345601201
H  7.1122303009 -0.1559400111 0.8297600746
