11

N  5.3559904099 -1.9055200815 0.0448200032
C  4.5749101639 -1.0603301525 0.0249400008
C  3.5950102806 0.0000000000 0.0000000000
C  4.3973202705 1.2591100931 0.0362999998
C  4.8323502541 1.9668401480 -1.2236100435
O  3.6966502666 2.4076902866 -0.4672600627
H  2.9355902672 -0.0470800027 0.8721700907
H  2.9717402458 -0.0581300035 -0.8985200524
H  4.9734301567 1.3942601681 0.9442000985
H  4.6467103958 1.5015801191 -2.1844403744
H  5.7262406349 2.5792202950 -1.1863900423
