16

C  0.9838700891 -0.0067800009 -0.0167300012
C  2.5200002193 0.0000000000 0.0000000000
C  3.0147302151 -0.7236200571 1.2619900703
C  3.0428302288 -0.7366100550 -1.2425001860
C  3.0020201206 1.3611700535 0.0000000000
C  3.3993003368 2.4830701351 0.0000000000
H  0.5915600657 0.5011000633 -0.9061100483
H  0.5724100471 0.5081500411 0.8598700762
H  0.5910900235 -1.0300000906 -0.0168200005
H  2.6615202427 -0.2250400186 2.1727502346
H  4.1103401184 -0.7444900274 1.3068801165
H  2.6601402760 -1.7602201700 1.2905900478
H  2.7042701244 -0.2522000074 -2.1663801670
H  2.6946401596 -1.7756501436 -1.2641000748
H  4.1392502785 -0.7519500852 -1.2662100792
H  3.7550301552 3.4876101017 0.0000000000
