13

C  2.4586901665 0.3891500235 0.9879601002
C  2.0805501938 0.0070200004 -0.4740100503
C  2.3894302845 1.4028501511 -0.8164400458
C  2.4751400948 2.3962600231 -1.7254501581
S  3.0480303764 3.8241302967 -0.8922200799
C  3.1387202740 3.0072603226 0.6523900032
C  2.7382402420 1.7336502075 0.4620700479
H  3.3266503811 -0.0906100050 1.4532201290
H  1.6709500551 0.3762100339 1.7498500347
H  1.0475500822 -0.2821800411 -0.6952200532
H  2.7095501423 -0.7188300490 -1.0014801025
H  2.2603700161 2.4116799831 -2.7841603756
H  3.4676003456 3.5239701271 1.5426300764
