21

C  3.2244601250 -1.1185801029 -0.7098600864
C  2.6522102356 -0.1448500007 0.3123300374
C  3.3074500561 1.2507801056 0.2623900175
C  2.5875601768 2.2051403522 1.2221500874
C  4.8078303337 1.2340000868 0.5316200852
C  5.2903504372 0.7066200972 1.8559901714
C  5.6813902855 1.6799801588 -0.3887300193
H  2.6741101742 -2.0640799999 -0.6751900315
H  4.2769804001 -1.3397700787 -0.5108300447
H  3.1403303146 -0.7157000303 -1.7238801718
H  2.7418000698 -0.5796500444 1.3152601719
H  1.5768700838 -0.0399900042 0.1181600094
H  3.1385302544 1.6457501650 -0.7494000793
H  2.6080303192 1.8381102085 2.2537302971
H  1.5367600918 2.3182101250 0.9334000349
H  3.0446503162 3.2004601955 1.2048300505
H  4.9955306053 -0.3383100033 1.9901201725
H  4.8811302185 1.2956200838 2.6823801994
H  6.3823904991 0.7478200793 1.9384801388
H  5.3510704041 2.0638802052 -1.3492801189
H  6.7520403862 1.6732701063 -0.2083200216
