16

C  -0.4521600306 1.4902701378 -0.4807300270
N  -1.3695001602 0.6286600232 0.2486700118
C  -1.3728500605 -0.7404200435 -0.2432200164
C  -0.2514600158 -1.5577001572 0.3113100231
C  1.0296500921 -1.1887601614 0.4449600577
C  1.6252301931 0.0408400036 -0.0120900003
C  1.0075800419 1.1615600586 -0.4132700264
H  -0.5690400600 2.4986200333 -0.0641700029
H  -0.7531400919 1.5620100498 -1.5334401131
H  -2.3075802326 1.0101701021 0.1544800103
H  -1.3984501362 -0.7986000180 -1.3376101255
H  -2.3053700924 -1.2031000853 0.1029700041
H  -0.5300600529 -2.5488903522 0.6622700691
H  1.7248500586 -1.8969401121 0.8931800723
H  2.7143301964 0.0266400017 -0.0365800038
H  1.6494201422 1.9747802019 -0.7497200370
