17

C  1.0846500397 0.0624500029 -0.1180400103
C  2.5780401230 -0.1262499988 -0.0148300007
C  3.0294501781 -1.5612001419 -0.0694800019
O  2.5283503532 -2.2524399757 1.0649600029
C  3.3911802769 0.9446900487 0.0938400030
C  4.8811602592 0.9780700803 0.1995200068
O  5.3861203194 1.6975001097 -0.9137600660
H  0.7991500497 1.1199600697 -0.1217600033
H  0.5776000023 -0.4125700295 0.7277500629
H  0.7093100548 -0.3832100034 -1.0453600883
H  4.1145405769 -1.6788500547 -0.0809600055
H  2.6425602436 -2.0483601093 -0.9706900716
H  2.7405002117 -1.7088700533 1.8429601192
H  2.9392001629 1.9370502234 0.1173300147
H  5.3510203362 -0.0066100000 0.2156200111
H  5.1772799492 1.5054501295 1.1113501787
H  5.0236907005 1.2759900093 -1.7115201950
