18

N  2.4045901299 -0.4261300266 1.4686101675
C  2.5425803661 0.0103900004 0.0880700052
C  3.0436804295 1.4115601778 0.0124700004
C  4.1861305237 1.8266801834 -0.5511700511
C  4.3716306686 3.3011302948 -0.4205000103
C  2.9847800732 3.7783801556 0.0034100004
C  2.2791101933 2.5599503517 0.5977300406
H  2.0989401340 -1.3985401392 1.4780501127
H  1.6616301537 0.1073100045 1.9149900675
H  1.5760902166 -0.0641200021 -0.4223400056
H  3.2309203148 -0.6684100628 -0.4282500148
H  4.9172501564 1.1774401665 -1.0146900415
H  5.1259503365 3.5235900879 0.3409200311
H  4.6744799614 3.7597203255 -1.3661301136
H  2.4310600758 4.1334505081 -0.8759800196
H  3.0339403152 4.6127605438 0.7107100487
H  1.2232501507 2.5441203117 0.3106800020
H  2.3524801731 2.5565800667 1.6902102232
