13

C  0.9364600778 -0.1451900005 -0.0049900003
C  2.3908500671 0.0687100068 -0.0019400001
C  3.2282502651 1.1574701071 0.0051400005
N  2.9092803001 2.4500801563 0.0133400010
N  4.5300903320 0.7735700607 0.0046100006
C  4.4499101639 -0.5385900140 -0.0001100000
O  3.1865801811 -1.0484300852 -0.0046800002
H  0.3955100477 0.8050700426 0.0047400007
H  0.6319200397 -0.7179800272 0.8757901192
H  0.6331700683 -0.6991200447 -0.8981400728
H  3.6453504562 3.1454703808 -0.0176700018
H  1.9630001783 2.8026802540 -0.0302900020
H  5.2590103149 -1.2554401159 0.0006000000
