13

N  1.0270400047 -0.0795600042 -0.3609200418
C  2.3489501476 0.0612900071 -0.0293900035
C  3.0874803066 1.1694800854 0.0463100038
C  4.5120205879 1.3313701153 0.4100900292
O  4.7451701164 2.7541701794 0.4224100411
N  3.5706903934 3.4340002537 -0.0134300012
C  2.6644601822 2.5363001823 -0.2144700140
H  0.5738200545 -0.8976300955 0.0431300029
H  0.4586000443 0.7602300644 -0.2823000252
H  2.8173201084 -0.8992100358 0.1847200245
H  5.1780204773 0.8825001121 -0.3316900432
H  4.7329902649 0.9372100830 1.4054900408
H  1.6433401108 2.7525801659 -0.5546500087
