22

C  1.2422900200 -0.3820700347 -0.1569400132
N  2.6714603901 -0.1063100100 -0.1026500016
C  2.9288802147 1.3348501921 -0.0829500034
C  4.4400000572 1.5846201181 -0.0303100012
C  4.8078303337 3.0761802197 0.0881000087
C  6.3144001961 3.2230300903 0.3159800172
C  4.3940806389 3.8786704540 -1.1464000940
H  1.0799300671 -1.4643601179 -0.1685100198
H  0.7859700322 0.0362200029 -1.0602101088
H  0.7282500267 0.0183100011 0.7229100466
H  3.1260502338 -0.5219400525 -0.9152600765
H  2.4559500217 1.7871401310 0.7964800596
H  2.5015602112 1.7969200611 -0.9790600538
H  4.9175200462 1.1576000452 -0.9224300981
H  4.8564505577 1.0500800610 0.8343400359
H  4.2938704491 3.4980404377 0.9608900547
H  6.8856806755 2.8171203136 -0.5260500312
H  6.6245503426 2.6934802532 1.2231501341
H  6.5896205902 4.2764000893 0.4360800385
H  4.8355903625 3.4612102509 -2.0577600002
H  4.7218604088 4.9203901291 -1.0596699715
H  3.3070001602 3.8919603825 -1.2688100338
