18

N  0.8056900501 0.1109600067 0.6766200066
C  2.2578203678 -0.0316600017 0.5119200349
C  2.9930701256 1.3288500309 0.4722300172
C  2.7905602455 2.1303100586 1.7723301649
O  1.4281800985 2.5106301308 1.9461600780
C  4.4694705009 1.1052200794 0.2256200165
C  5.1344904900 1.5777500868 -0.8370100260
H  0.3861700296 -0.8209900260 0.6890800595
H  0.4240200520 0.5642900467 -0.1576400101
H  2.4493300915 -0.5874200463 -0.4140500128
H  2.6407601833 -0.6410600543 1.3392100334
H  2.5638401508 1.9119200706 -0.3548300266
H  3.3841803074 3.0507502556 1.7560101748
H  3.0974602699 1.5505001545 2.6500003338
H  0.9022400379 1.6999101639 1.7653201818
H  5.0146503448 0.5265400410 0.9696400762
H  4.6425600052 2.1666903496 -1.6053501368
H  6.1973404884 1.3884201050 -0.9565100670
