12

C  1.0233501196 -0.0571100041 -0.0743500069
C  2.4882402420 0.1664700061 0.0428100042
O  3.2634501457 -0.4429000318 -0.9942600727
C  3.2362301350 0.9941800833 -0.9708700776
C  4.4936203957 1.5761601925 -0.6130100489
C  5.5464200974 2.0678901672 -0.3163100183
H  0.4827900231 0.6568800807 0.5544800162
H  0.7679800391 -1.0673201084 0.2600400150
H  0.6696500778 0.0607100055 -1.1038299799
H  2.8534302711 0.0960700065 1.0584101677
H  2.6714901924 1.4886600971 -1.7521201372
H  6.4853906631 2.4993801117 -0.0546200052
