14

N  1.0000001192 0.0000000000 0.0000000000
C  2.1510102749 0.0000000000 0.0000000000
C  3.5950102806 0.0000000000 0.0000000000
C  4.1451802254 -1.2212301493 -0.7560901046
C  4.4957900047 -0.6683000326 -2.1023201942
C  4.4959802628 0.6675200462 -2.1025300026
C  4.1454200745 1.2211201191 -0.7567000389
H  3.9516704082 0.0001400000 1.0366801023
H  3.4218902588 -2.0396702290 -0.8360601068
H  5.0539703369 -1.6042701006 -0.2782800198
H  4.7384305000 -1.2853600979 -2.9584801197
H  4.7386302948 1.2842100859 -2.9589002132
H  5.0539703369 1.6040501595 -0.2788000107
H  3.4219803810 2.0393302441 -0.8367300630
