13

C  1.5073701143 -0.3714100122 0.2630300224
N  2.9469001293 -0.2883800268 0.0625600070
C  3.4361903667 1.0851501226 0.2709100246
C  4.9014501572 1.1908601522 -0.1298200190
O  5.4117503166 0.5627600551 -1.0545700788
C  5.6618103981 2.1811699867 0.6066800952
N  6.2333202362 2.9943802357 1.2103701830
H  1.1766901016 -1.4030101299 0.1099600047
H  0.9658500552 0.2649500370 -0.4439400136
H  1.2349901199 -0.0854800045 1.2839500904
H  3.1825902462 -0.5877000093 -0.8883400559
H  3.3253302574 1.3534001112 1.3275101185
H  2.8775200844 1.8018101454 -0.3426100314
