15

C  1.0313800573 0.0142600015 0.1050700024
N  2.4486401081 0.0618000031 -0.1916200221
O  3.1002402306 1.1067301035 0.4882700443
C  4.3808999062 1.2598500252 -0.1357700080
C  5.2003602982 0.0017500002 0.1311300099
N  4.4820003510 -1.2365701199 -0.2278000116
C  3.2049500942 -1.0847101212 -0.3205900192
H  0.5882200003 1.0105800629 0.0136700012
H  0.8614400625 -0.3522500396 1.1219800711
H  0.5133000612 -0.6469600201 -0.5976600647
H  4.8726100922 2.1343002319 0.3018500209
H  4.2529401779 1.4467101097 -1.2091201544
H  5.4544901848 -0.0584200062 1.1961400509
H  6.1384000778 0.0468400046 -0.4325500429
H  2.5901203156 -1.9657400846 -0.5680200458
