14

C  0.9428600669 -0.1559199989 0.0093200002
C  2.4522700310 0.0312400013 0.0077100005
C  2.8462901115 1.4732201099 -0.0014500001
C  3.0752401352 2.2571902275 1.1160800457
S  3.5001204014 3.8386602402 0.6203400493
N  3.3985903263 3.5389101505 -1.0065801144
C  3.0493302345 2.2670102119 -1.1768100262
H  0.6922700405 -1.2214500904 0.0153800016
H  0.4867400229 0.2958800197 -0.8782700896
H  0.4874900281 0.3058100045 0.8921900392
H  2.8785302639 -0.4709200263 -0.8690700531
H  2.8793501854 -0.4621700346 0.8891600370
H  3.0150504112 1.9907001257 2.1613101959
H  2.9420702457 1.9217301607 -2.1976602077
