15

C  0.9859501123 -0.0019700001 -0.0060400004
C  2.5135900974 -0.0347700007 0.0060500004
C  3.0264601707 -0.7146700621 1.2738100290
C  3.0536603928 -0.7392100692 -1.2378500700
O  2.9971201420 1.3092401028 0.0131700011
H  0.6130700707 0.5211500525 -0.8939200640
H  0.6013400555 0.5473300219 0.8607600331
H  0.5608900785 -1.0107600689 0.0048900000
H  2.6814403534 -0.1833800077 2.1682100296
H  4.1217803955 -0.6992200613 1.3089200258
H  2.6920900345 -1.7551400661 1.3378400803
H  2.7198703289 -0.2321900129 -2.1502602100
H  2.7276501656 -1.7832601070 -1.2834801674
H  4.1491603851 -0.7154700160 -1.2540801764
H  2.6743502617 1.7485101223 -0.7922100425
