15

O  2.8769302368 -0.9185300469 -0.5258400440
C  2.2069001198 0.1951400191 0.0400500037
C  1.8290500641 -0.1003400087 1.4242001772
C  1.5132701397 -0.3503200412 2.5566501617
C  3.1641802788 1.3436201811 0.1376800090
C  3.3961801529 2.2412002087 -1.0558800697
C  2.6745002270 2.7724802494 0.1508200020
H  3.2431702614 -0.6135900617 -1.3712900877
H  1.3292601109 0.4302700460 -0.5710700750
H  1.2383301258 -0.5799700618 3.5597701073
H  4.0348501205 1.1025600433 0.7414400578
H  2.8163301945 2.0798101425 -1.9575301409
H  4.4064702988 2.5920901299 -1.2362201214
H  3.1962003708 3.4767503738 0.7895100713
H  1.6093301773 2.9579002857 0.0688800067
