15

C  1.4911100864 0.2213000059 -0.2889800072
C  2.8496501446 -0.1933600157 0.1318600178
C  3.1465504169 -1.5955301523 0.5244500637
O  4.3779106140 -1.9536201954 -0.1383100152
C  5.0904502869 -0.7391800284 -0.4496500194
C  4.0803604126 0.3495700061 -0.4799900353
O  3.6213903427 0.8214300275 0.7930500507
H  1.4652000666 1.2690401077 -0.6051200628
H  0.7843400240 0.1012300104 0.5378700495
H  1.1440501213 -0.3912000358 -1.1268801689
H  2.3732502460 -2.2986600399 0.2012200207
H  3.2875101566 -1.6949001551 1.6055701971
H  5.8499603271 -0.5689000487 0.3215200305
H  5.5854501724 -0.8689301014 -1.4157800674
H  4.0563402176 0.9831300974 -1.3485101461
