20

C  2.1653501987 -0.9261400700 -0.4597700238
C  1.9013100863 0.5012300611 -0.0080400007
C  3.1644403934 1.3080000877 0.0476700030
C  3.4938402176 2.3031501770 -1.0366001129
C  3.0743904114 2.7899701595 0.3295800388
C  4.0567102432 3.4250001907 1.2588400841
N  3.9888601303 4.8646502495 1.0688900948
H  1.2293901443 -1.4902300835 -0.5077200532
H  2.8360700607 -1.4383800030 0.2390600294
H  2.6328701973 -0.9456700683 -1.4486601353
H  1.4465800524 0.4819800258 0.9886000752
H  1.1727501154 0.9645800591 -0.6849700212
H  3.9812502861 0.7641300559 0.5104500055
H  2.7940802574 2.4393701553 -1.8534901142
H  4.5331001282 2.4070503712 -1.3296101093
H  2.0811901093 3.2145202160 0.4391300082
H  5.0774807930 3.0726401806 1.0718001127
H  3.7984602451 3.1780900955 2.2921001911
H  4.2560000420 5.0868501663 0.1107100025
H  4.6774902344 5.3126802444 1.6691602468
