11

O  0.9683100581 -0.0329700001 0.2554600239
S  2.4097502232 0.0598300062 0.1365300119
O  3.2705202103 0.2473100126 1.2876201868
C  3.0224502087 -1.3246400356 -0.8557600975
C  3.4665601254 -0.6766900420 -2.1327400208
C  3.3125002384 0.6453400850 -2.1371500492
O  2.7775900364 1.1934400797 -0.9963600636
H  2.2059900761 -2.0308301449 -1.0185600519
H  3.8569502831 -1.7934401035 -0.3304900229
H  3.8708305359 -1.2397900820 -2.9629702568
H  3.5487000942 1.3518900871 -2.9155101776
