19

C  2.0649402142 -0.8362900615 0.6743000150
O  1.9544000626 0.1793300211 -0.3117700219
C  2.7015004158 1.3698201180 -0.0400700010
C  2.4007301331 2.3501200676 -1.1827200651
C  2.2545301914 2.0235102177 1.2735800743
O  4.1072001457 1.1219600439 0.0788600072
C  4.7216200829 0.5821900368 -1.0821501017
H  1.5863201618 -1.7392002344 0.2833500206
H  1.5374000072 -0.5509600639 1.5895200968
H  3.1099500656 -1.0733001232 0.8952301145
H  2.5831801891 1.8892700672 -2.1598000526
H  3.0256102085 3.2470703125 -1.1157400608
H  1.3458200693 2.6465404034 -1.1787600517
H  2.5537900925 1.4216201305 2.1394302845
H  1.1669601202 2.1433601379 1.3119201660
H  2.7284002304 3.0029501915 1.4069800377
H  5.7361001968 0.2737400234 -0.8133200407
H  4.8013205528 1.3395900726 -1.8664702177
H  4.1849603653 -0.2957500219 -1.4528901577
