15

C  0.8492800593 -0.0317800045 -0.1988900155
C  2.2959702015 0.0079900008 0.1525100172
C  3.3203804493 -0.8437100649 -0.5481300354
O  2.9861803055 -1.4308701754 -1.8220601082
C  2.9611203671 -0.3679500222 -2.7869601250
O  2.9952001572 0.9028800726 -2.1182901859
C  3.3261001110 0.6501000524 -0.7372300625
H  0.3656400144 0.8976300955 0.1165800020
H  0.3626600206 -0.8591800928 0.3263200223
H  0.6626900434 -0.1588700116 -1.2677401304
H  2.4237000942 0.1426700056 1.2226700783
H  4.1118903160 -1.2926300764 0.0395500027
H  3.8372504711 -0.4535700381 -3.4365701675
H  2.0468101501 -0.4397900403 -3.3823001385
H  4.1212005615 1.2254700661 -0.2801600397
