17

C  0.9180900455 0.0076200003 0.1258200109
C  2.3963303566 0.2530300319 -0.1650900096
C  2.8029801846 -0.3113600016 -1.5034501553
C  3.7370102406 -1.2563800812 -1.6713901758
C  2.7210202217 1.7527900934 -0.1344899982
N  3.7044103146 2.2067902088 0.6915300488
N  2.1156201363 2.6235702038 -0.8795300722
H  0.6280600429 0.4779400527 1.0710301399
H  0.7102600932 -1.0648500919 0.2031600177
H  0.2705700099 0.4168200195 -0.6573600769
H  2.9780902863 -0.2279900312 0.6328500509
H  2.3028202057 0.0865900069 -2.3850402832
H  4.2719507217 -1.6923000813 -0.8335000277
H  3.9859101772 -1.6183701754 -2.6652500629
H  4.4840407372 1.5807601213 0.8516100645
H  3.9881103039 3.1506903172 0.4475800395
H  1.4072101116 2.1662101746 -1.4620300531
