12

O  1.0865200758 0.0605100058 -0.4229600132
N  2.3221101761 0.0281800013 0.2383300066
C  2.8682501316 1.1935601234 0.2601600289
O  4.0778903961 1.3757201433 0.8622700572
C  4.4551100731 2.7480802536 0.7580800056
C  3.3430402279 3.3727602959 0.0195100009
C  2.4081802368 2.4769403934 -0.2792100310
H  0.7955100536 -0.8681400418 -0.3549400270
H  5.4009103775 2.8231503963 0.2158300132
H  4.5682802200 3.1684501171 1.7608401775
H  3.3018703461 4.4203405380 -0.2398000211
H  1.4817700386 2.6138100624 -0.8072900772
