14

C  1.1198900938 -0.1648800075 0.0034500002
N  2.5635702610 -0.0654800013 -0.1565899998
C  3.0231103897 1.2961701155 0.0961700082
C  4.5120401382 1.3451601267 -0.0587200038
C  5.1631507874 2.1350202560 -0.9219800234
H  0.8017900586 -1.1943000555 -0.1899100244
H  0.5911000371 0.4876900315 -0.6988900304
H  0.8157700300 0.0868400112 1.0248100758
H  2.8115200996 -0.3176100254 -1.1129900217
H  2.7743902206 1.5975700617 1.1206301451
H  2.5371801853 2.0012800694 -0.5900000334
H  5.0849204063 0.6892200708 0.5934900045
H  4.6368002892 2.8086702824 -1.5908000469
H  6.2476506233 2.1185803413 -0.9764600992
