12

O  0.8454700708 1.2585500479 0.2786799967
N  2.1428301334 1.7822000980 0.2280300260
C  2.9835901260 0.8039200902 0.1134300083
C  4.4481401443 1.0041201115 0.0441100039
C  5.2418408394 -0.0776900053 0.0254900008
C  5.0453705788 2.3619103432 0.0045500007
O  6.2524504662 2.5664401054 -0.0726300031
H  0.2979900241 2.0565402508 0.4066400230
H  2.6325004101 -0.2440600097 0.0682100058
H  4.8506207466 -1.0881301165 0.0606400035
H  6.3227705956 0.0251500029 -0.0167000014
H  4.3250904083 3.1950502396 0.0450100042
