19

C  2.2703201771 -0.7770200968 -0.8855100870
O  1.9529302120 0.4840900600 -0.3139700294
C  3.1141402721 1.3138800859 -0.1148400083
C  3.3756604195 2.3913300037 -1.1399101019
C  2.5341000557 2.5301702023 -2.3626401424
C  2.8081903458 2.7560801506 0.2075800151
C  3.6401004791 3.4960303307 1.1975001097
H  1.3420801163 -1.3314400911 -1.0401700735
H  2.9135401249 -1.3476800919 -0.2076900154
H  2.7678301334 -0.6449100375 -1.8516300917
H  3.9733402729 0.8715900183 0.3824400306
H  4.4122500420 2.6324501038 -1.3469301462
H  1.4714500904 2.3576200008 -2.1622800827
H  2.8585500717 1.8161002398 -3.1263103485
H  2.6381599903 3.5388102531 -2.7753903866
H  1.7638301849 3.0417201519 0.2708400190
H  4.6953401566 3.2105801105 1.1447501183
H  3.2833502293 3.2962403297 2.2123301029
H  3.5692002773 4.5727105141 1.0166699886
