11

C  2.1436202526 0.4450300336 0.6981900930
N  1.9213302135 0.3041200340 -0.7368600368
C  2.9976503849 1.0851000547 -0.9932200909
N  3.4142103195 2.0568902493 -1.7837101221
O  4.0440502167 2.9573202133 -0.8777300715
C  3.8059103489 2.5334002972 0.4189800322
C  3.2391602993 1.3135801554 0.3209700286
H  2.4200701714 -0.5112000108 1.1538200378
H  1.3214100599 0.9046900272 1.2513800859
H  2.0062201023 -0.6586000323 -1.0503901243
H  3.9919104576 3.2666201591 1.1884402037
