15

O  3.3150901794 -0.4958800375 -1.1131901741
C  2.1223301888 -0.3187000155 -0.3487900198
C  2.1963300705 1.0165400505 0.4004600048
N  3.3171100616 0.9945300221 1.3501601219
C  3.5769102573 2.3318202496 1.8984501362
C  4.6958804131 2.3359801769 2.8659503460
N  5.5806903839 2.3609201908 3.6173801422
H  3.2656502724 -1.3849201202 -1.5058301687
H  2.0208001137 -1.1576300859 0.3479000330
H  1.2696300745 -0.3209100366 -1.0346701145
H  1.2563900948 1.1923099756 0.9340700507
H  2.3441903591 1.8194200993 -0.3317400217
H  4.1443605423 0.6689200401 0.8395100832
H  2.6774201393 2.7015702724 2.4043602943
H  3.8124201298 3.0306401253 1.0869500637
