15

C  2.6153702736 -0.7296800613 -1.1646901369
N  2.3626801968 0.0333900005 0.0522500053
C  2.9607002735 1.3856801987 0.0000000000
C  2.4520702362 2.1450302601 1.2041201591
C  1.7059701681 3.2594201565 1.1545001268
C  4.4047007561 1.3856801987 0.0000000000
N  5.5557107925 1.3856801987 0.0000000000
H  2.0944402218 -1.6903800964 -1.1020001173
H  3.6805503368 -0.9416600466 -1.3025101423
H  2.2358601093 -0.2082800120 -2.0492501259
H  2.7547202110 -0.4711600244 0.8470700383
H  2.5975403786 1.8871201277 -0.9066200852
H  2.7161302567 1.7476201057 2.1825001240
H  1.3994600773 3.7059803009 0.2137300223
H  1.3758801222 3.7450401783 2.0684900284
