16

N  2.0239801407 -0.3959200382 -1.2645801306
C  2.4907302856 0.2163700163 -0.0120000010
C  3.3550801277 1.4854201078 -0.1927500069
O  2.5630002022 2.5822000504 -0.6759300232
C  2.9871201515 3.6965303421 0.1047100052
C  3.3291203976 3.0731601715 1.4289602041
O  3.9569504261 1.8436301947 1.0659800768
H  1.5298202038 -1.2608001232 -1.0515100956
H  2.8238801956 -0.6483300924 -1.8425601721
H  3.0625002384 -0.5300300717 0.5511700511
H  1.6114001274 0.4645000398 0.5932900310
H  4.1667404175 1.2971500158 -0.9049300551
H  3.8686702251 4.1347804070 -0.3761600256
H  2.1969802380 4.4486403465 0.1691800207
H  3.9993803501 3.6849503517 2.0368802547
H  2.4295601845 2.8360002041 2.0064902306
