17

C  1.0160400867 0.6970700026 -0.1465700120
N  2.1610500813 0.7255401015 0.7565100193
C  3.2893302441 0.9102400541 0.1637500226
N  4.5154299736 0.9726101160 0.7905300260
C  5.6682705879 0.4098900259 0.0670600012
C  5.5120000839 1.8886901140 0.2218100131
C  6.3883905411 2.6521403790 1.1514600515
H  0.1947300136 0.1568500251 0.3344300389
H  1.2348401546 0.1840800196 -1.0899001360
H  0.6721200943 1.7140902281 -0.3595000207
H  3.3497502804 1.0411701202 -0.9339700937
H  5.4391603470 -0.0559100062 -0.8811001182
H  6.3383102417 -0.1290200055 0.7227100730
H  5.1814303398 2.4788501263 -0.6235000491
H  6.6761507988 2.0610501766 2.0272300243
H  5.8729205132 3.5514802933 1.5027301311
H  7.3019509315 2.9631702900 0.6354800463
