15

C  0.9289900661 -0.1047400087 -0.0618500039
N  2.3819901943 -0.0500700027 -0.1580600142
C  2.8656902313 1.3147500753 0.0106400009
C  4.3608303070 1.3095000982 -0.0365600027
C  5.0886807442 2.0159101486 -0.9154300690
C  6.5088300705 1.9834101200 -0.9233600497
N  7.6690506935 1.9658801556 -0.9392001033
H  0.5946900249 -1.1397401094 -0.1832100153
H  0.4526300430 0.4966000319 -0.8431400657
H  0.5826500654 0.2405400276 0.9176300168
H  2.6651303768 -0.3969100416 -1.0742000341
H  2.5566201210 1.7099601030 0.9855600595
H  2.4499602318 1.9694101810 -0.7646900415
H  4.8586502075 0.6895500422 0.7086099982
H  4.6111102104 2.6408803463 -1.6616601944
