20

C  2.0158400536 -1.0565700531 -0.6383000612
C  1.7325801849 0.3371000290 -0.0977300107
C  2.9934201241 1.0766000748 0.3217000067
C  3.6402802467 0.5490900278 1.5805600882
C  3.8959503174 1.6243101358 -0.7652500272
C  3.0359802246 2.5655901432 0.0234800018
N  3.6609501839 3.5185003281 0.9364001155
H  1.0865700245 -1.5256700516 -0.9772400260
H  2.4553501606 -1.7030901909 0.1272500157
H  2.7078900337 -1.0201400518 -1.4859100580
H  1.0532000065 0.2669700384 0.7592600584
H  1.1982500553 0.9021800756 -0.8718200326
H  4.5815200806 1.0558600426 1.8126801252
H  3.8710801601 -0.5153400302 1.4833902121
H  2.9665904045 0.6782200336 2.4327802658
H  3.6275603771 1.4547400475 -1.8023101091
H  4.9670901299 1.6321901083 -0.5995200276
H  2.1815199852 2.9873802662 -0.5042200089
H  4.5708003044 3.1954102516 1.2605400085
H  3.0888903141 3.6425201893 1.7712800503
