15

C  1.1464101076 0.0414700024 -0.4880400300
N  2.3846499920 0.0477000028 0.2785600126
C  3.0538401604 -1.2367700338 0.4199400246
C  3.1089704037 1.2153601646 0.3970900476
N  2.7080903053 2.3901102543 0.0456300043
C  3.5927603245 3.4174604416 0.2548800111
O  4.7317304611 3.3302600384 0.7031600475
H  0.5149400234 0.8965400457 -0.2242000252
H  0.5621200800 -0.8624800444 -0.2861600220
H  1.3621101379 0.0806800053 -1.5607000589
H  2.3339400291 -2.0367100239 0.6218900681
H  3.7627003193 -1.2197401524 1.2544600964
H  3.5998103619 -1.4830101728 -0.4962000251
H  4.1068501472 1.0400500298 0.8435300589
H  3.1931800842 4.4060401917 -0.0300500020
