12

C  1.0009500980 -0.0541500039 0.0032800003
C  2.5200002193 0.0000000000 0.0000000000
C  3.0020201206 1.3611700535 0.0000000000
C  3.3993003368 2.4830701351 0.0000000000
C  3.9108402729 3.9275202751 0.0000000000
C  4.3113703728 5.0575904846 0.0000000000
H  0.6575200558 -1.0935400724 0.0018200001
H  0.5847800374 0.4426800311 -0.8800500631
H  0.5888500214 0.4388300180 0.8906700611
H  2.8954300880 -0.5326800346 -0.8809600472
H  2.8993601799 -0.5342600346 0.8783100843
H  4.6674404144 6.0617403984 0.0000000000
