13

C  0.9543001056 0.0079000005 -0.0048400001
C  2.4431402683 0.0247200020 0.0006300000
C  3.2176201344 1.1734100580 -0.0025600002
S  4.8659000397 0.7362000942 0.0034500002
N  4.6069307327 -0.8951700926 0.0117500005
C  3.3003304005 -1.1301300526 0.0151000014
N  2.8129100800 -2.3784101009 0.0331700034
H  0.5425800085 1.0221300125 0.0037500004
H  0.5736899972 -0.5172100663 0.8769700527
H  0.5816300511 -0.4989700317 -0.9009001255
H  2.9054701328 2.2074501514 -0.0075200005
H  1.8320901394 -2.6106102467 -0.0532900058
H  3.4596602917 -3.1564900875 -0.0255400017
