17

C  -0.8770600557 0.0009400001 -1.1505701542
C  -0.5917800069 1.0420401096 -0.0245200023
C  -1.2426301241 -0.0014800002 0.9245401025
C  -0.5921100378 -1.0435100794 -0.0275300015
C  0.8979101181 -1.2025001049 0.2712100148
O  1.6106901169 -0.0014600001 -0.0547700040
C  0.8986900449 1.1992601156 0.2742400169
H  -1.9092100859 0.0016700001 -1.5208300352
H  -0.1995500177 0.0018000001 -2.0089001656
H  -1.1272801161 1.9924901724 -0.0995700061
H  -0.9045400620 -0.0031400004 1.9645901918
H  -2.3395302296 -0.0014300001 0.9173101187
H  -1.1283299923 -1.9933601618 -0.1046600044
H  1.0717900991 -1.4491500854 1.3240702152
H  1.3253300190 -2.0062701702 -0.3364600241
H  1.3265501261 2.0049002171 -0.3311500251
H  1.0726200342 1.4434601068 1.3280100822
