20

C  3.3402001858 -0.6162600517 -1.0410200357
N  2.7857604027 0.2119200230 0.0212400015
C  3.0712203979 1.6551201344 -0.0854800045
C  2.4037601948 2.2476100922 -1.3430901766
C  2.4078202248 2.3169703484 1.1419501305
C  4.5661807060 1.9089502096 0.0170700010
C  5.3527803421 2.5508301258 -0.8609001040
H  3.0561101437 -1.6583601236 -0.8616800308
H  4.4338803291 -0.5797800422 -1.0694000721
H  2.9438302517 -0.3488400280 -2.0246200562
H  3.1147701740 -0.1328700036 0.9212200642
H  2.8529601097 1.8778500557 -2.2714302540
H  2.4852302074 3.3414802551 -1.3561900854
H  1.3344000578 2.0048000813 -1.3748301268
H  2.8086302280 1.9255901575 2.0856001377
H  1.3237100840 2.1482801437 1.1506400108
H  2.5710000992 3.4019603729 1.1441000700
H  5.0449204445 1.5222101212 0.9168200493
H  4.9745302200 2.9714603424 -1.7858800888
H  6.4145803452 2.6648101807 -0.6658000350
