15

C  0.9227800369 -0.0657400042 0.0652100071
C  2.4474601746 0.0268400013 0.0864700004
C  2.9388101101 1.3168901205 -0.5327600241
C  3.8971803188 1.1174501181 -1.6555501223
N  4.2989201546 -0.0156200007 -2.1272802353
N  3.8385801315 -1.2043100595 -1.5768100023
C  3.0110702515 -1.1889600754 -0.5842400789
H  0.4724100530 0.7954500318 0.5703600645
H  0.5804600716 -0.9713500738 0.5772100687
H  0.5406100750 -0.1036200076 -0.9603800774
H  2.7687103748 -0.0173900016 1.1338601112
H  3.4456701279 1.9282401800 0.2234600186
H  2.1151602268 1.9321601391 -0.9145200849
H  4.2967305183 2.0323801041 -2.1248099804
H  2.6966402531 -2.1650302410 -0.1778400093
