14

C  0.9851700664 -0.2996200025 0.1547000110
C  2.4886100292 -0.3152300119 0.0230000000
C  3.1395602226 -1.4905701876 0.0280500017
N  3.1604702473 0.8891900778 -0.1004800126
C  2.6825401783 2.1623899937 -0.1269100159
N  3.3859703541 3.2331802845 -0.2470900118
H  0.6853200197 0.2535100281 1.0509700775
H  0.5663200617 -1.3084801435 0.2377000153
H  0.5285700560 0.1718600094 -0.7218900323
H  2.6088502407 -2.4331202507 0.1251600087
H  4.2189702988 -1.5512201786 -0.0639300048
H  4.1651601791 0.7936300635 -0.1840900034
H  1.5878301859 2.2487401962 -0.0346300006
H  4.3775000572 2.9993400574 -0.3223300278
