14

C  0.8887400627 -0.0169900022 0.0225800015
C  2.4067101479 0.0105900010 -0.0267300028
O  2.8375301361 -0.5845100284 -1.2533100843
C  2.9582202435 1.4445301294 0.0519300029
N  4.4161500931 1.4293801785 -0.1381300092
H  0.5136200190 0.4205800295 0.9523400664
H  0.5233600140 -1.0467600822 -0.0521500036
H  0.4585200548 0.5305000544 -0.8230200410
H  2.8125102520 -0.5940400362 0.7927700281
H  3.7306501865 -0.2102800161 -1.4051400423
H  2.7080101967 1.9052901268 1.0129100084
H  2.5252699852 2.0556602478 -0.7475700378
H  4.8530402184 0.9480400681 0.6492600441
H  4.7621407509 2.3891103268 -0.1026200056
