12

C  1.0000001192 0.0000000000 0.0000000000
C  2.1901600361 0.0000000000 0.0000000000
C  3.6341602802 0.0000000000 0.0000000000
C  4.2471303940 -1.2220500708 0.6471199989
O  4.5420503616 -0.8438800573 2.0004501343
N  4.6888904572 0.5640600324 2.0332002640
C  4.1810803413 1.0124900341 0.9353600740
H  -0.0663200021 -0.0009500001 0.0080900006
H  4.0253901482 0.1584100127 -1.0087900162
H  5.1949605942 -1.4925701618 0.1679900140
H  3.5949301720 -2.1005902290 0.6502200365
H  4.1331901550 2.0837101936 0.6928400993
