19

C  1.5298401117 -0.7139700651 -0.5914000273
C  2.4275400639 0.1161800101 -1.1374400854
C  3.0036201477 1.3112801313 -0.4358200431
C  4.5240402222 1.2022300959 -0.3007500172
C  5.1005101204 2.4229001999 0.4212900400
C  6.5930504799 2.3292701244 0.5542700291
C  7.4489207268 3.2252702713 0.0472700037
H  1.1430600882 -1.5609101057 -1.1515200138
H  1.1594200134 -0.5715600252 0.4193200171
H  2.7622001171 -0.0671399981 -2.1569402218
H  2.5530900955 1.4309601784 0.5569700599
H  2.7465403080 2.2082102299 -1.0123600960
H  4.9797701836 1.1114301682 -1.2954901457
H  4.7821302414 0.2892300189 0.2518600225
H  4.6671004295 2.4971201420 1.4259800911
H  4.8169302940 3.3364703655 -0.1164800078
H  6.9864101410 1.4805201292 1.1102700233
H  7.1065406799 4.0923204422 -0.5088000298
H  8.5198707581 3.1077003479 0.1816700101
