10

O  1.0071101189 0.2151000202 -0.2320300192
N  2.3705601692 0.2966400087 -0.5418000817
C  2.9912002087 0.8221300840 0.4626100361
C  4.4728703499 1.0357900858 0.4108000100
O  5.2097802162 0.1708800048 0.8649100661
C  5.0223002434 2.2703902721 -0.1038100123
C  5.4886007309 3.2982802391 -0.5161500573
H  0.6412500143 -0.2563800216 -1.0051400661
H  2.5057401657 1.1544700861 1.3939701319
H  5.9133706093 4.2062501907 -0.8784700632
