16

C  1.0000001192 0.0000000000 0.0000000000
C  2.4440002441 0.0000000000 0.0000000000
C  3.6341602802 0.0000000000 0.0000000000
C  5.0753707886 0.0482300036 -0.0186800007
C  5.7426905632 1.0947800875 0.8986001015
C  6.7233805656 -0.0420000032 1.2358001471
N  5.6516504288 -0.9941301346 0.8664800525
H  0.6059800386 1.0208700895 0.0117600011
H  0.6060100794 -0.5205700397 0.8782600164
H  0.6059200764 -0.5002800226 -0.8899300694
H  5.5001406670 0.0329700001 -1.0316400528
H  5.1405901909 1.4286501408 1.7526800632
H  6.1762304306 1.9672100544 0.4022000432
H  7.6009206772 -0.0872400105 0.5798799992
H  7.0489702225 -0.0954200104 2.2768301964
H  5.9620003700 -1.8306901455 0.3775600195
