14

C  1.0000001192 0.0000000000 0.0000000000
C  2.4440002441 0.0000000000 0.0000000000
C  3.6341602802 0.0000000000 0.0000000000
C  5.0781602859 0.0000000000 0.0000000000
C  5.6187605858 -0.7629700303 -1.2070500851
C  5.5601801872 1.3611700535 0.0000000000
N  5.9443902969 2.4461600780 0.0000000000
H  0.6060200334 1.0208801031 0.0116500007
H  0.6059400439 -0.5205300450 0.8782400489
H  0.6060200334 -0.5003000498 -0.8899601102
H  5.4364705086 -0.5056800246 0.9049600363
H  5.2969207764 -0.3091300428 -2.1530001163
H  5.2694001198 -1.8022401333 -1.2043300867
H  6.7150702477 -0.7773800492 -1.2046301365
