16

C  1.2777401209 -1.0535200834 -0.2238700241
C  2.3253302574 -0.0055300002 -0.5384300351
O  3.6071202755 -0.5336700678 -0.2048200071
C  4.6756701469 0.3979800344 -0.4562300444
C  6.0356206894 -0.2258700132 -0.5938100219
C  5.3292202950 0.3064400256 -1.8056101799
H  0.2756200135 -0.6914300323 -0.4743100405
H  1.3020801544 -1.3169701099 0.8388800621
H  1.4710301161 -1.9741401672 -0.7846100330
H  2.1379101276 0.9002800584 0.0473200008
H  2.2978701591 0.2437900156 -1.6041901112
H  4.6340303421 1.3687200546 0.0288000014
H  6.1134004593 -1.3007100821 -0.4790800512
H  6.8862309456 0.3269900084 -0.2138700187
H  5.6999106407 1.2209901810 -2.2515101433
H  4.9342803955 -0.4109500349 -2.5164203644
