17

C  1.7441902161 -1.0375701189 0.6194700599
C  3.2347104549 -0.7571500540 0.5032400489
C  3.4975202084 0.6494500637 -0.0359400027
C  4.9693102837 0.9130001068 -0.1873900145
C  5.6114101410 1.8976101875 0.4570100307
C  7.0577106476 2.1134200096 0.2523000240
O  7.6549005508 3.0133302212 0.8293400407
H  1.5775802135 -2.0464501381 1.0089100599
H  1.2553601265 -0.9654300809 -0.3571200073
H  1.2632600069 -0.3269400299 1.2984701395
H  3.6887702942 -1.5061701536 -0.1577400118
H  3.7006902695 -0.8744100928 1.4896200895
H  3.0365803242 1.3900101185 0.6289400458
H  3.0234801769 0.7643700838 -1.0178700686
H  5.5055904388 0.2609800100 -0.8742200732
H  5.1199302673 2.5764801502 1.1443800926
H  7.5625705719 1.4248000383 -0.4449900389
