17

C  2.3111400604 -0.8218700290 -1.0631301403
C  2.1186602116 0.0929900110 0.1375100166
C  2.3579201698 1.5400800705 -0.2071100175
C  1.3689800501 2.4493901730 -0.2092800140
O  3.6946403980 1.8601201773 -0.3967100382
C  4.0550103188 2.7781901360 -1.3508501053
C  5.2738003731 3.3219301701 -1.3850200176
H  2.1015403271 -1.8592101336 -0.7827400565
H  3.3386502266 -0.7762000561 -1.4382901192
H  1.6355601549 -0.5497699976 -1.8808701038
H  2.8047401905 -0.2054300159 0.9392800927
H  1.1040701866 -0.0476700030 0.5300500393
H  0.3416500390 2.1652100086 -0.0089400010
H  1.5628501177 3.5013301373 -0.3870700300
H  3.2890303135 3.0069701672 -2.0784201622
H  6.0195002556 3.0599403381 -0.6424200535
H  5.5420002937 4.0402703285 -2.1510400772
