17

C  1.0589201450 -0.0657100007 -0.0071200002
C  2.5480401516 -0.0285300035 -0.0578800030
C  3.2805204391 -0.5899600387 -1.2492300272
C  3.2505903244 0.9030500650 -1.0178000927
C  4.4790506363 1.6361800432 -0.5888500214
N  5.2641205788 1.9228100777 -1.7787500620
H  0.6863900423 0.7167700529 0.6610300541
H  0.7199000120 -1.0326001644 0.3771400154
H  0.6087300777 0.0857100040 -0.9935900569
H  2.9853003025 -0.1879800111 0.9216300845
H  2.7040200233 -0.9789301157 -2.0812301636
H  4.2049703598 -1.1261901855 -1.0671300888
H  2.6359603405 1.5046501160 -1.6803901196
H  5.0752301216 1.0488201380 0.1178900078
H  4.1976404190 2.5727503300 -0.0973000079
H  5.5315303802 1.0433300734 -2.2180202007
H  6.1318306923 2.3784801960 -1.5032000542
