12

O  2.0754902363 -0.8693500757 0.3600800335
C  2.4518201351 0.1830800027 -0.1395500004
N  3.0048902035 1.2428901196 0.5536700487
C  4.0805201530 2.0097501278 -0.0002900000
C  2.7222902775 2.5951101780 0.1677700132
C  2.4841601849 3.5291702747 1.2256500721
C  2.2805001736 4.3122005463 2.1126401424
H  2.3778402805 0.3656300306 -1.2255700827
H  4.4118504524 1.7153500319 -0.9868500829
H  4.8575901985 2.2302503586 0.7186700106
H  2.1032202244 2.7029502392 -0.7160100937
H  2.0979402065 4.9991502762 2.9064302444
