15

C  0.4410300553 -0.2437200099 -1.5930401087
C  1.1475501060 -0.3244200349 -0.4575900435
C  2.3602001667 0.4978000224 -0.1515100151
N  3.4881403446 -0.4013300240 0.0774400011
C  4.7013006210 0.3267800212 0.4854100347
C  5.2960801125 1.1732900143 -0.5703300238
N  5.7506003380 1.8368201256 -1.4080301523
H  -0.4333600104 -0.8689200878 -1.7467701435
H  0.7152800560 0.4389900267 -2.3914601803
H  0.8272300363 -1.0231801271 0.3128900230
H  2.1540100574 1.0882000923 0.7487200499
H  2.5696501732 1.1949400902 -0.9711501002
H  3.6787202358 -0.9090300798 -0.7876300812
H  5.4446706772 -0.4194100499 0.7891800404
H  4.4935202599 0.9274000525 1.3786100149
