17

C  1.7152301073 -0.5385000110 -0.9596300721
C  2.7452502251 -0.3652400076 0.1433400065
N  3.7802104950 0.5514000654 -0.2841100097
C  4.7813100815 0.9730800390 0.5247800350
N  5.3118405342 0.3467800319 1.5091301203
O  5.1826305389 2.2118701935 0.1644300073
C  6.2296805382 2.7918801308 0.9500200748
H  0.9301000834 -1.2316501141 -0.6426600814
H  2.1767401695 -0.9342500567 -1.8703101873
H  1.2446401119 0.4179700315 -1.2112201452
H  3.1812102795 -1.3407101631 0.3845000267
H  2.2537500858 0.0203400031 1.0434501171
H  3.4582102299 1.3082201481 -0.8789200783
H  4.8787603378 -0.5739000440 1.5785200596
H  6.4464607239 3.7822103500 0.5399300456
H  7.1393308640 2.1866400242 0.8882600665
H  5.9069304466 2.9132599831 1.9887602329
