18

C  0.9976800680 0.1201000139 -0.0829300061
C  2.5060901642 -0.0335300006 0.1301200092
N  3.2335801125 1.1829401255 -0.2656700313
C  3.5161302090 1.2239401340 -1.7027000189
C  4.3546600342 0.0226500016 -2.1635503769
C  3.8668601513 -1.2707600594 -1.5800901651
C  3.0129201412 -1.2828500271 -0.5464500189
H  0.6143000126 0.9974700809 0.4497300088
H  0.4607400298 -0.7552200556 0.3000500202
H  0.7408400774 0.2287100255 -1.1423001289
H  2.6752402782 -0.1567500234 1.2071101665
H  2.6942000389 2.0042400360 -0.0007600000
H  4.0623803139 2.1457102299 -1.9321501255
H  2.5790002346 1.2687600851 -2.2710702419
H  5.4027004242 0.1618900001 -1.8723500967
H  4.3236999512 -0.0360800028 -3.2572803497
H  4.2287502289 -2.1994502544 -2.0101301670
H  2.6723003387 -2.2340500355 -0.1453600079
