15

O  4.0805401802 1.7839601040 2.7019400597
C  3.2179503441 2.2905399799 2.0029602051
O  3.3043901920 2.5833501816 0.6840300560
C  4.5530405045 2.2543599606 0.0589200035
C  5.5198702812 3.3821804523 0.2411200255
C  6.4178805351 3.8190104961 -0.8886500597
C  5.2891001701 4.7063803673 -0.4417400360
H  2.2228400707 2.5876002312 2.3683001995
H  4.3394999504 2.0880801678 -1.0027900934
H  4.9625806808 1.3151501417 0.4493600428
H  5.9292707443 3.4000904560 1.2456700802
H  6.3257102966 3.3314702511 -1.8524801731
H  7.4294905663 4.1225705147 -0.6426300406
H  5.5357804298 5.6070904732 0.1092200130
H  4.4298605919 4.8085207939 -1.0950500965
