19

C  0.7589300871 -0.3228500187 0.6838400364
C  2.1594102383 -0.4761700332 0.0826700032
C  2.3795402050 -1.9275802374 -0.3456200063
C  2.3332602978 0.5196500421 -1.0830100775
C  3.6989102364 0.4957900345 -1.7749401331
C  4.7921299934 0.8998700976 -0.8788100481
C  5.6918902397 1.2297301292 -0.1556400061
H  0.6026200652 0.6971501112 1.0503600836
H  0.6199700236 -1.0051500797 1.5290300846
H  -0.0178300012 -0.5399900079 -0.0575600043
H  2.8845403194 -0.2384100109 0.8706100583
H  1.7282700539 -2.1977901459 -1.1835401058
H  2.1674001217 -2.6132102013 0.4819900393
H  3.4167003632 -2.1004302502 -0.6480900645
H  2.1414501667 1.5352301598 -0.7110700607
H  1.5648300648 0.3193500340 -1.8412902355
H  3.6674702168 1.1886501312 -2.6247603893
H  3.9020302296 -0.4937200248 -2.1972701550
H  6.4922204018 1.5227000713 0.4840700626
