11

O  1.1389901638 0.3181000352 -0.0646500066
S  2.7248001099 0.0053800005 0.0001700000
O  2.9809701443 -0.6280700564 1.2737200260
O  3.0228703022 -0.6415400505 -1.2594801188
C  3.3141901493 1.7061800957 0.0000000000
C  4.7581906319 1.7061800957 0.0000000000
C  5.9483504295 1.7061800957 0.0000000000
H  0.7569900751 -0.2372800112 -0.7789500356
H  2.9075503349 2.1905701160 0.8919600844
H  2.9108703136 2.1895401478 -0.8941600919
H  7.0148305893 1.6988201141 0.0017400002
