11

O  1.0494900942 -0.0809300020 0.1399500072
C  2.4063200951 0.0223800018 0.0359600037
C  3.0219702721 1.2495400906 -0.0317400023
C  4.3925805092 1.2099601030 -0.1381400079
N  5.1023502350 0.0681600049 -0.1748100221
C  4.3852801323 -1.0643601418 -0.0991700068
N  3.0535702705 -1.1477600336 0.0064900005
H  0.6712600589 0.8093300462 0.1234500110
H  2.4857501984 2.1853899956 -0.0043300004
H  4.9786705971 2.1220901012 -0.1989500076
H  4.9354104996 -1.9986102581 -0.1265200078
