18

C  0.9837000370 0.0059400005 -0.0002900000
C  2.5019001961 -0.0334000029 0.0099600004
C  3.0922901630 -1.1508901119 0.8801500797
C  3.8939104080 -0.2815000415 1.8465201855
C  4.6018700600 0.7948700786 0.9744300842
C  3.1056103706 1.1622500420 0.7534200549
N  2.9550302029 0.8526200652 2.2427799702
H  0.5802600384 -0.8841000795 -0.4934100211
H  0.6276300550 0.8889100552 -0.5410600305
H  0.5647800565 0.0503200069 1.0108600855
H  2.8794603348 -0.0916500017 -1.0178200006
H  3.7399203777 -1.8171901703 0.3014000058
H  2.3332302570 -1.7495601177 1.3941000700
H  4.4555006027 -0.7541900277 2.6519901752
H  5.1642804146 0.4416600168 0.1052500084
H  5.2072100639 1.5333300829 1.5138101578
H  2.8636603355 2.1767599583 0.4356600344
H  3.3803801537 1.5494501591 2.8556401730
