13

C  0.9764201045 -0.0013100002 -0.0080500003
C  2.4561100006 0.0519800037 -0.0006800001
C  3.2811403275 1.1107901335 0.0050600003
N  4.5756802559 0.6575600505 0.0110400002
C  4.5785603523 -0.7431000471 0.0092100007
O  5.5402002335 -1.4875200987 0.0132600013
N  3.2219700813 -1.0906400681 0.0017100001
H  0.5421700478 1.0038000345 -0.0046200003
H  0.6062100530 -0.5313700438 0.8753000498
H  0.6147900820 -0.5217800140 -0.9006000757
H  3.0440101624 2.1635401249 0.0053700004
H  5.4172005653 1.2128900290 0.0161600020
H  2.8945503235 -2.0440502167 -0.0010700001
