14

C  0.8589801192 0.1026800051 -0.0694500059
C  2.3328402042 0.0578500032 -0.3204700351
C  3.2209103107 0.8376900554 0.3174500167
C  4.6638202667 0.8398900628 0.1167500019
C  5.4445204735 1.6750401258 0.8242800832
C  5.2732400894 -0.0429900028 -0.8329600692
N  5.7763905525 -0.7550600767 -1.6005802155
H  0.5093000531 -0.8776301146 0.2684000134
H  0.3318200111 0.3565900326 -0.9941301346
H  0.5892700553 0.8420100808 0.6912200451
H  2.6523900032 -0.6633900404 -1.0708200932
H  2.8448002338 1.5421202183 1.0593600273
H  5.0377402306 2.3650600910 1.5567200184
H  6.5233502388 1.6921501160 0.6893400550
