17

C  0.9913600683 0.0107700005 0.0207800008
C  2.5099000931 -0.0326500013 0.0214800015
C  3.1406004429 1.1352900267 0.8000800610
N  4.4174299240 0.5832300186 1.1870001554
C  4.3472900391 -0.7694400549 1.3049401045
N  5.2108902931 -1.4959400892 1.9161301851
C  3.0737001896 -1.2968901396 0.6958500743
H  0.5815700889 -0.8376500607 -0.5369500518
H  0.6316600442 0.9320200682 -0.4489900172
H  0.5889300704 -0.0285200030 1.0386800766
H  2.8709301949 -0.0013100002 -1.0156100988
H  2.5578403473 1.3945901394 1.6908401251
H  3.2585902214 2.0255701542 0.1758900136
H  4.9965105057 1.0607901812 1.8677201271
H  4.9272103310 -2.4806101322 1.8888201714
H  3.2807202339 -2.0945000648 -0.0222800002
H  2.4275901318 -1.6745301485 1.4946601391
