13

C  1.0311300755 0.0064100004 -0.0644300058
C  2.5210204124 -0.0025200001 -0.0131600006
C  3.3074402809 -0.7090499997 -1.0822200775
C  3.3240902424 0.8013400435 -1.0119700432
C  4.5178108215 1.4691600800 -0.5747300386
N  5.4820303917 2.0094401836 -0.2234300226
H  0.6350500584 0.7671400309 0.6164300442
H  0.6373200417 -0.9673600793 0.2464500219
H  0.6537000537 0.2209100127 -1.0701700449
H  2.8833401203 -0.0828500018 1.0070600510
H  2.7719602585 -1.1705501080 -1.9042900801
H  4.1935901642 -1.2564700842 -0.7775700688
H  2.7758300304 1.3251800537 -1.7879601717
