16

C  3.4923002720 -1.2419201136 -1.1627401114
N  3.2454602718 -0.5066100359 0.0729600117
C  3.4567503929 0.9401500821 -0.0973000079
C  4.9365506172 1.3111600876 -0.0481500030
O  5.8258905411 0.5204000473 0.2827700078
C  5.2658405304 2.7657601833 -0.3596200347
O  6.6649904251 2.9953401089 -0.4248800278
H  3.3054502010 -2.3065299988 -0.9915400743
H  4.5252504349 -1.1344001293 -1.5070501566
H  2.8143603802 -0.9150100946 -1.9576002359
H  3.9089503288 -0.8412700891 0.7790901065
H  2.9661002159 1.4596401453 0.7324100733
H  3.0149202347 1.2976500988 -1.0333400965
H  4.8466801643 3.3974301815 0.4284000397
H  4.8295903206 3.0387003422 -1.3239500523
H  7.0885405540 2.2546303272 0.0555200018
