13

N  1.0088400841 0.1149700135 0.4986000359
N  2.3637599945 0.0905300081 0.3922100365
C  2.9317903519 1.2205700874 0.0916800052
C  2.2792401314 2.5640001297 -0.1514000148
O  1.3755800724 2.9137501717 0.8866700530
C  4.3608703613 1.0810700655 -0.0331700034
C  5.5524606705 0.9670301080 -0.1376100034
H  0.5995301008 -0.2401900291 -0.3740500510
H  0.7310200930 -0.6079300642 1.1740301847
H  1.7273801565 2.5226800442 -1.0957200527
H  3.0369703770 3.3491201401 -0.2267600149
H  0.8899201155 2.0815901756 1.0726400614
H  6.6084508896 0.8561800122 -0.2239000201
