15

C  1.1059000492 -0.1146100089 0.2410900146
C  2.4141201973 -0.0374400020 -0.0181700010
C  3.1953601837 1.2564901114 -0.1102100089
C  4.5502300262 0.8470600843 -0.7180500627
C  4.5175104141 -0.6609800458 -0.6370199919
N  5.5387706757 -1.3846200705 -0.9230201244
N  3.2761602402 -1.0672800541 -0.2615400255
H  0.5904900432 -1.0678200722 0.2853600085
H  0.5155700445 0.7805800438 0.4100800157
H  3.3484702110 1.6738802195 0.8915500641
H  2.6949503422 2.0052001476 -0.7318600416
H  4.6238903999 1.1485900879 -1.7681000233
H  5.3968400955 1.2558001280 -0.1606200039
H  5.2994604111 -2.3721401691 -0.8085901141
H  2.9707202911 -2.0277700424 -0.2401800156
