19

C  1.2016201019 2.2337801456 1.1213201284
O  2.6176199913 2.1204001904 1.1321401596
C  3.0927400589 1.3687701225 0.0161200017
C  4.6006703377 1.3041601181 0.0855800062
C  5.1406803131 0.4567200541 1.2074700594
C  5.3820104599 1.3345401287 -1.2132800817
C  5.3859305382 2.5371601582 -0.3129599988
H  0.8962801099 2.8141801357 1.9957901239
H  0.7373600602 1.2447201014 1.1787101030
H  0.8656500578 2.7566802502 0.2209100127
H  2.7635602951 1.8531801701 -0.9114500880
H  2.6741502285 0.3560200036 0.0450000055
H  6.2366003990 0.4586000443 1.2312901020
H  4.8111104965 -0.5813000202 1.0918700695
H  4.7867903709 0.8252000809 2.1757001877
H  4.8401002884 1.4069701433 -2.1497702599
H  6.2958502769 0.7544800639 -1.2851901054
H  6.2961807251 2.7686502934 0.2292200178
H  4.8336205482 3.4166004658 -0.6264700294
