15

N  1.2346900702 -0.0195900016 0.7329000831
C  2.3610203266 0.1110900044 0.1255000085
N  3.0201301575 1.2789201736 -0.0782500133
C  4.2920002937 1.3923901320 -0.7688700557
C  4.5580801964 2.8586602211 -0.7128400207
C  3.5749301910 3.5048801899 -0.0769700035
C  2.5115799904 2.5616602898 0.3825000226
H  0.9676100612 -1.0094000101 0.7436600327
H  2.8837602139 -0.7705000639 -0.2874200046
H  4.2120504379 1.0482400656 -1.8046700954
H  5.0757007599 0.8321000338 -0.2496400177
H  5.4359402657 3.3234903812 -1.1357901096
H  3.5351803303 4.5702905655 0.0931900069
H  2.4160003662 2.5849502087 1.4726301432
H  1.5511401892 2.8014101982 -0.0845500082
