15

C  -1.1849601269 -0.7193000317 -0.5194400549
O  -1.2124600410 0.7344000340 -0.4607300162
C  -0.0446000025 1.0786501169 0.3294300139
C  1.1971200705 0.7217200398 -0.4909700453
O  1.2238500118 -0.7324900627 -0.4351200461
C  0.0375300013 -1.0783500671 0.3290000260
C  -0.0152700003 -0.0014000002 1.3865301609
H  -1.0911501646 -1.0252000093 -1.5653800964
H  -2.1194200516 -1.0920600891 -0.0902200043
H  -0.0966900066 2.1142201424 0.6705400348
H  2.1216502190 1.0932099819 -0.0399300009
H  1.1269400120 1.0295001268 -1.5377901793
H  0.0823100060 -2.1142702103 0.6678000093
H  -0.9227400422 -0.0486200005 1.9957101345
H  0.8780700564 0.0452800021 2.0162401199
