14

C  1.0006800890 -0.0208400004 0.1930100173
C  2.5200002193 0.0000000000 0.0000000000
O  3.0928502083 -0.7429300547 1.0896400213
C  2.8822703362 -0.7803300619 -1.2453300953
C  3.4282302856 -0.3354900181 -2.3880701065
C  3.0020201206 1.3611700535 0.0000000000
N  3.3862302303 2.4461600780 0.0000000000
H  0.4771500528 0.4965300560 -0.6195600629
H  0.7188500762 0.4625600278 1.1368601322
H  0.6201900244 -1.0481101274 0.2497000098
H  3.0710303783 -0.1705600172 1.8763101101
H  2.6750001907 -1.8487602472 -1.1788700819
H  3.6834301949 0.7073300481 -2.5551602840
H  3.6439802647 -1.0257300138 -3.1997203827
