15

C  0.9819900393 0.0003800000 -0.0109800007
C  2.5200002193 0.0000000000 0.0000000000
C  3.0098402500 -0.7167600989 1.2697701454
C  3.0058403015 -0.7461200356 -1.1863200665
C  3.4021601677 -1.3484801054 -2.1485002041
C  3.0020201206 1.3611700535 0.0000000000
C  3.3993003368 2.4830701351 0.0000000000
H  0.5869800448 0.4985500276 -0.9056200981
H  0.5748200417 0.5257400274 0.8615200520
H  0.5808399916 -1.0204800367 -0.0031400004
H  2.6592602730 -0.2100100070 2.1770601273
H  4.1060204506 -0.7472300529 1.3159800768
H  2.6537902355 -1.7535802126 1.3075300455
H  3.7568304539 -1.8770902157 -3.0030303001
H  3.7576403618 3.4866402149 -0.0046700002
