14

C  1.1989501715 0.4509700537 -0.5819400549
O  2.5796101093 0.3478300273 -0.2309900224
C  3.2469902039 1.5274600983 -0.2889300287
O  2.7812502384 2.6108300686 -0.6022300124
C  4.6524906158 1.2730501890 0.0830500051
C  5.5378804207 2.2760801315 0.0945100039
N  6.8689804077 2.1937000751 0.4167900085
H  0.7649700642 -0.5520600677 -0.5485500693
H  1.0870500803 0.8416700363 -1.5984801054
H  0.6690800190 1.0829700232 0.1373200119
H  4.9265203476 0.2599400282 0.3450200260
H  5.2291402817 3.2905900478 -0.1603600085
H  7.2633504868 1.2568401098 0.3803300261
H  7.4516005516 2.8880500793 -0.0474600047
