19

C  0.2861300409 -0.3874800205 0.5096900463
C  1.6631300449 -0.3541800082 -0.1447000057
C  1.9829201698 -1.7085001469 -0.7677800059
O  1.7159601450 0.6104800701 -1.1981101036
C  1.7137300968 1.9594801664 -0.7421900630
C  2.0109100342 2.8270800114 -1.9234801531
C  2.9964401722 3.7321102619 -1.9797202349
H  0.0866400078 0.5420800447 1.0531301498
H  0.2050000131 -1.2134500742 1.2239801884
H  -0.5037500262 -0.4915300310 -0.2427300215
H  2.4317600727 -0.1266700178 0.6032100916
H  1.2649900913 -1.9576201439 -1.5580101013
H  1.9713801146 -2.5066902637 -0.0186300017
H  2.9726502895 -1.6881201267 -1.2381401062
H  2.4607400894 2.0960302353 0.0482700020
H  0.7244500518 2.2186403275 -0.3525800109
H  1.3683400154 2.6893601418 -2.7897603512
H  3.6683504581 3.8994703293 -1.1433601379
H  3.1553504467 4.3221602440 -2.8772702217
