17

C  -1.6985200644 0.6562500596 0.3406300545
C  -1.6622201204 -0.7405300736 -0.3750400245
C  -0.1936800182 -0.7878000736 0.1219400093
C  1.1626200676 -1.0368900299 -0.4809400439
O  1.9970401525 0.0109900013 0.0658500046
C  1.1091800928 1.0336600542 0.5735700130
C  -0.2102400064 0.7466199994 -0.0897800103
H  -2.3705501556 1.3923400640 -0.1073200107
H  -1.8652601242 0.6203300357 1.4231600761
H  -1.7812100649 -0.7085500360 -1.4637701511
H  -2.3321800232 -1.4957001209 0.0428200029
H  -0.1700800061 -1.1120401621 1.1776801348
H  1.5794301033 -2.0076000690 -0.1993900090
H  1.1671000719 -0.9510200620 -1.5731401443
H  1.0666400194 0.9476000667 1.6645401716
H  1.5102701187 2.0163402557 0.3102100194
H  -0.1493900120 1.0717400312 -1.1435900927
