7

O  0.9666700959 -0.0019400001 0.0000000000
C  2.1915102005 0.0170500018 0.0000000000
C  2.9271104336 -1.2296400070 0.0000000000
C  3.5336103439 -2.2673499584 0.0000000000
C  2.9255101681 1.2682499886 0.0000000000
N  3.5352802277 2.2600800991 0.0000000000
H  4.0652203560 -3.1920201778 0.0000000000
