15

C  1.8101800680 2.9678902626 0.6907700896
O  3.2108001709 2.7409601212 0.5354000330
C  3.5347802639 1.4538900852 0.2500300109
O  2.7383203506 0.5333800316 0.1280300021
C  5.0096402168 1.2778401375 0.1062500104
C  5.4614405632 -0.1348500103 -0.1144600138
C  5.8720207214 2.3070700169 0.1648700088
H  1.6689801216 4.0036802292 1.0101900101
H  1.3911100626 2.3109202385 1.4589201212
H  1.2967001200 2.8254902363 -0.2644800246
H  5.1605200768 -0.7690700889 0.7258500457
H  6.5502004623 -0.2059000283 -0.2082500160
H  5.0235400200 -0.5398300290 -1.0326400995
H  5.5457005501 3.3311603069 0.3207300305
H  6.9406504631 2.1519801617 0.0550200045
