12

O  0.9904400706 0.0163500011 0.0206500012
C  2.4200003147 0.0000000000 0.0000000000
C  2.8673801422 -0.7791900635 -1.2361701727
C  4.2951107025 -1.1082201004 -1.1709101200
N  5.4215607643 -1.3780101538 -1.1129900217
C  2.9020202160 1.3611700535 0.0000000000
C  3.2993004322 2.4830701351 0.0000000000
H  0.7265700102 0.6040300131 0.7508900166
H  2.7442901134 -0.5194400549 0.9095900655
H  2.6481001377 -0.2138700187 -2.1507101059
H  2.2860703468 -1.7066202164 -1.3130000830
H  3.6595804691 3.4867100716 -0.0027800002
