19

C  2.3081800938 -0.4570600390 -1.4967801571
C  2.4597899914 0.0326500013 -0.0658100024
C  3.2582502365 1.3282400370 -0.0245600026
C  2.5544002056 2.6142301559 -0.5304900408
C  3.2568702698 3.3709001541 0.6130300760
C  3.3437304497 2.0231001377 1.3669301271
O  4.5419802666 1.7863202095 2.1267702579
H  1.7518901825 -1.3990701437 -1.5196501017
H  3.2860102654 -0.6252600551 -1.9594701529
H  1.7688401937 0.2727700174 -2.1088001728
H  2.9739103317 -0.7353000641 0.5236800313
H  1.4674400091 0.1713000089 0.3789700270
H  4.2524800301 1.1932200193 -0.4758700430
H  1.4619700909 2.6007301807 -0.4382700324
H  2.8208601475 2.9340500832 -1.5412200689
H  4.2288303375 3.7946302891 0.3356800377
H  2.6568803787 4.1459503174 1.0970901251
H  2.4624202251 1.8438601494 1.9961601496
H  5.2782607079 1.9718900919 1.5196701288
